@<TRIPOS>MOLECULE
IFF
  131   140     1     0     0
SMALL
No Charge or Current Charge


@<TRIPOS>ATOM
      1 C4          31.1760   -17.8730    11.3060 ca         1 IFF      -0.094000
      2 C5          29.9040   -17.4840    10.8450 ca         1 IFF      -0.007000
      3 C6          29.0560   -18.4520    10.2770 ca         1 IFF      -0.094000
      4 C7          29.4420   -16.1040    10.9800 cc         1 IFF      -0.174000
      5 C8          31.2340   -21.6200    10.4710 c3         1 IFF       0.159000
      6 C13         29.6510   -22.8650    14.4140 c5         1 IFF      -0.079400
      7 C15         29.7150   -25.0630    15.3980 c5         1 IFF       0.074000
      8 C20         31.1440   -27.5070    14.1400 c3         1 IFF       0.051700
      9 C21         32.6890   -27.3770    14.4510 c3         1 IFF      -0.048000
     10 C24         33.2060   -28.6580    15.1680 c3         1 IFF      -0.089433
     11 C28         28.9040   -30.7660    11.9120 cx         1 IFF      -0.114900
     12 C1          29.4810   -19.7850    10.1490 ca         1 IFF      -0.099500
     13 C2          30.7620   -20.1730    10.5930 ca         1 IFF      -0.088300
     14 C3          31.6030   -19.2060    11.1800 ca         1 IFF      -0.099500
     15 N9          30.4620   -22.4530    11.3930 ns         1 IFF      -0.489900
     16 C11         29.8770   -23.8660    13.2440 c5         1 IFF       0.033700
     17 O12         32.2100   -23.5490    12.3960 o          1 IFF      -0.601100
     18 C14         28.8950   -23.7340    15.4490 c5         1 IFF       0.150300
     19 N16         30.2280   -25.0960    14.0040 n          1 IFF      -0.385800
     20 O17         27.5260   -23.9220    15.0670 oh         1 IFF      -0.659000
     21 C18         30.5380   -26.3010    13.3400 c          1 IFF       0.598100
     22 O19         30.3520   -26.3830    12.1310 o          1 IFF      -0.633100
     23 N22         30.8470   -28.7350    13.3650 ns         1 IFF      -0.481900
     24 C23         33.5040   -27.1890    13.1400 c3         1 IFF      -0.089433
     25 C25         32.9820   -26.1740    15.3860 c3         1 IFF      -0.089433
     26 O27         30.1840   -30.1040    15.0690 o          1 IFF      -0.611100
     27 C29         28.9010   -31.8780    12.9330 cx         1 IFF      -0.114900
     28 C30         30.1100   -30.9750    12.8020 cx         1 IFF       0.023000
     29 F31         31.2400   -31.4920    12.2320 f          1 IFF      -0.240000
     30 C32         30.1590   -15.0290    10.4910 cd         1 IFF       0.298300
     31 N33         29.5380   -13.8050    10.6920 nd         1 IFF      -0.637000
     32 C34         28.3680   -13.9850    11.3020 cc         1 IFF       0.419300
     33 S35         27.9170   -15.6320    11.6620 ss         1 IFF      -0.045400
     34 C36         31.4830   -15.0620     9.7730 c3         1 IFF      -0.121400
     35 C38         30.9750   -24.7210     8.9610 c3         1 IFF       0.159800
     36 C39         31.1930   -22.1240     9.0040 c3         1 IFF      -0.084400
     37 N40         31.5940   -26.0210     8.5920 n3         1 IFF      -0.720600
     38 C41         32.7310   -26.3950     9.4840 c6         1 IFF       0.162800
     39 C42         33.3950   -27.7250     9.0560 c6         1 IFF      -0.068900
     40 C43         32.3660   -28.8890     9.0080 c6         1 IFF      -0.022400
     41 C44         31.1900   -28.4610     8.0900 c6         1 IFF      -0.068900
     42 C45         30.5800   -27.1120     8.5470 c6         1 IFF       0.162800
     43 C46         32.9470   -30.2630     8.6010 ca         1 IFF      -0.049300
     44 C47         32.1060   -31.3980     8.6620 ca         1 IFF      -0.110000
     45 C48         32.6180   -32.6530     8.2960 ca         1 IFF      -0.019200
     46 C49         33.9370   -32.8020     7.9050 ca         1 IFF      -0.046200
     47 C50         34.7880   -31.6910     7.7910 ca         1 IFF      -0.088000
     48 C51         34.2880   -30.4250     8.1530 ca         1 IFF      -0.111000
     49 N52         31.9470   -33.8730     8.1700 na         1 IFF      -0.199600
     50 C53         32.9070   -34.7880     7.7290 cc         1 IFF       0.640300
     51 N54         34.1280   -34.1440     7.6070 na         1 IFF      -0.125400
     52 N55         32.5800   -35.7940     6.9400 nd         1 IFF      -0.762100
     53 C56         33.5460   -36.4220     6.1450 c          1 IFF       0.728100
     54 C57         34.9820   -35.9430     6.2500 ca         1 IFF      -0.178600
     55 C58         35.2250   -34.7890     7.0320 ca         1 IFF       0.062800
     56 C59         36.0860   -36.6160     5.6550 ca         1 IFF       0.065100
     57 C60         37.3940   -36.1550     5.8790 ca         1 IFF      -0.126000
     58 C61         37.6290   -35.0550     6.7130 ca         1 IFF      -0.063000
     59 C62         36.5480   -34.3850     7.3000 ca         1 IFF      -0.150000
     60 C63         30.5030   -34.1410     8.2920 c5         1 IFF       0.091300
     61 O64         33.1700   -37.3180     5.4090 o          1 IFF      -0.528100
     62 Br1         35.9260   -38.1870     4.5540 br         1 IFF      -0.061100
     63 C66         29.5740   -33.2710     7.3760 c5         1 IFF      -0.094900
     64 C67         28.3700   -32.8580     8.2750 c5         1 IFF      -0.083400
     65 C68         28.3990   -33.9090     9.4100 c5         1 IFF      -0.083400
     66 C69         29.9140   -33.9440     9.7160 c5         1 IFF      -0.094900
     67 H72         31.8330   -17.1450    11.7750 ha         1 IFF       0.119000
     68 H73         28.0660   -18.1690     9.9280 ha         1 IFF       0.119000
     69 H74         32.2870   -21.6470    10.7860 h1         1 IFF       0.082700
     70 H77         30.6030   -22.5120    14.8290 hc         1 IFF       0.076700
     71 H78         29.0830   -21.9780    14.1100 hc         1 IFF       0.076700
     72 H81         29.0910   -25.9350    15.6340 h1         1 IFF       0.063700
     73 H80         30.5400   -25.0270    16.1190 h1         1 IFF       0.063700
     74 H83         30.6040   -27.5670    15.0920 h1         1 IFF       0.084700
     75 H89         32.6250   -28.8590    16.0760 hc         1 IFF       0.041922
     76 H90         33.1430   -29.5390    14.5180 hc         1 IFF       0.041922
     77 H88         34.2570   -28.5480    15.4610 hc         1 IFF       0.041922
     78 H95         28.9990   -31.0300    10.8630 hc         1 IFF       0.094200
     79 H70         28.8080   -20.5160     9.7070 ha         1 IFF       0.114000
     80 H71         32.5890   -19.4860    11.5440 ha         1 IFF       0.114000
     81 H75         29.4600   -22.3180    11.4280 hn         1 IFF       0.317500
     82 H76         28.9650   -24.0220    12.6520 h1         1 IFF       0.074700
     83 H79         28.9410   -23.2830    16.4500 h1         1 IFF       0.058700
     84 H82         27.0820   -24.3980    15.8040 ho         1 IFF       0.447000
     85 H84         30.9290   -28.6820    12.3560 hn         1 IFF       0.348500
     86 H86         34.5800   -27.1580    13.3510 hc         1 IFF       0.041922
     87 H87         33.3270   -28.0100    12.4360 hc         1 IFF       0.041922
     88 H85         33.2410   -26.2480    12.6440 hc         1 IFF       0.041922
     89 H93         32.4280   -26.2650    16.3280 hc         1 IFF       0.041922
     90 H91         34.0490   -26.1250    15.6350 hc         1 IFF       0.041922
     91 H92         32.7210   -25.2200    14.9150 hc         1 IFF       0.041922
     92 H96         28.2680   -31.7620    13.8090 hc         1 IFF       0.094200
     93 H97         28.9940   -32.9000    12.5740 hc         1 IFF       0.094200
     94 H98         27.6900   -13.1850    11.5720 h5         1 IFF       0.053100
     95 H99         31.6150   -14.1770     9.1400 hc         1 IFF       0.052367
     96 H100        32.3140   -15.0880    10.4870 hc         1 IFF       0.052367
     97 H101        31.5620   -15.9430     9.1260 hc         1 IFF       0.052367
     98 H104        30.6500   -24.7490    10.0080 h1         1 IFF       0.040200
     99 H105        30.0710   -24.5700     8.3550 h1         1 IFF       0.040200
    100 H107        31.7020   -21.3720     8.3870 hc         1 IFF       0.050200
    101 H106        30.1590   -22.1620     8.6430 hc         1 IFF       0.050200
    102 H109        33.5060   -25.6170     9.4790 h1         1 IFF       0.037200
    103 H110        32.3800   -26.4920    10.5200 h1         1 IFF       0.037200
    104 H112        34.2050   -27.9660     9.7560 hc         1 IFF       0.047950
    105 H111        33.8530   -27.5820     8.0680 hc         1 IFF       0.047950
    106 H113        31.9640   -29.0060    10.0250 hc         1 IFF       0.058700
    107 H115        30.4010   -29.2240     8.0890 hc         1 IFF       0.047950
    108 H114        31.5390   -28.3730     7.0520 hc         1 IFF       0.047950
    109 H117        29.7680   -26.8450     7.8550 h1         1 IFF       0.037200
    110 H116        30.1230   -27.2480     9.5390 h1         1 IFF       0.037200
    111 H118        31.0710   -31.2920     8.9720 ha         1 IFF       0.133000
    112 H119        35.8010   -31.7730     7.4130 ha         1 IFF       0.127000
    113 H120        34.9570   -29.5740     8.0680 ha         1 IFF       0.124000
    114 H121        38.2360   -36.6750     5.4280 ha         1 IFF       0.136000
    115 H122        38.6480   -34.7310     6.9140 ha         1 IFF       0.122000
    116 H123        36.7560   -33.5740     7.9890 ha         1 IFF       0.126000
    117 H124        30.3270   -35.1920     8.0210 h1         1 IFF       0.106700
    118 H125        30.0820   -32.3880     6.9710 hc         1 IFF       0.057700
    119 H126        29.2430   -33.8540     6.5090 hc         1 IFF       0.057700
    120 H127        28.5050   -31.8440     8.6690 hc         1 IFF       0.048450
    121 H128        27.4210   -32.8630     7.7280 hc         1 IFF       0.048450
    122 H129        27.8010   -33.6050    10.2770 hc         1 IFF       0.048450
    123 H130        28.0250   -34.8850     9.0750 hc         1 IFF       0.048450
    124 H131        30.1840   -34.7640    10.3900 hc         1 IFF       0.057700
    125 H132        30.2550   -33.0170    10.1880 hc         1 IFF       0.057700
    126 C10         31.0110   -23.3090    12.3260 c          1 IFF       0.598100
    127 C37         31.8840   -23.4870     8.7400 c3         1 IFF      -0.074400
    128 C26         30.3780   -29.9230    13.8730 c          1 IFF       0.621100
    129 H102        32.7840   -23.5550     9.3620 hc         1 IFF       0.050200
    130 H103        32.2230   -23.5050     7.6980 hc         1 IFF       0.050200
    131 H94         28.2690   -29.9030    12.1040 hc         1 IFF       0.094200
@<TRIPOS>BOND
     1     1     2 ar  
     2     1    14 ar  
     3     1    67 1   
     4     2     3 ar  
     5     2     4 1   
     6     3    12 ar  
     7     3    68 1   
     8     4    30 2   
     9     4    33 1   
    10     5    13 1   
    11     5    15 1   
    12     5    36 1   
    13     5    69 1   
    14     6    16 1   
    15     6    18 1   
    16     6    70 1   
    17     6    71 1   
    18     7    18 1   
    19     7    19 1   
    20     7    72 1   
    21     7    73 1   
    22     8     9 1   
    23     8    21 1   
    24     8    23 1   
    25     8    74 1   
    26     9    10 1   
    27     9    24 1   
    28     9    25 1   
    29    10    75 1   
    30    10    76 1   
    31    10    77 1   
    32    11    27 1   
    33    11    28 1   
    34    11    78 1   
    35    11   131 1   
    36    12    13 ar  
    37    12    79 1   
    38    13    14 ar  
    39    14    80 1   
    40    15    81 1   
    41    15   126 1   
    42    16    19 1   
    43    16    82 1   
    44    16   126 1   
    45    17   126 2   
    46    18    20 1   
    47    18    83 1   
    48    19    21 1   
    49    20    84 1   
    50    21    22 2   
    51    23    85 1   
    52    23   128 1   
    53    24    86 1   
    54    24    87 1   
    55    24    88 1   
    56    25    89 1   
    57    25    90 1   
    58    25    91 1   
    59    26   128 2   
    60    27    28 1   
    61    27    92 1   
    62    27    93 1   
    63    28    29 1   
    64    28   128 1   
    65    30    31 1   
    66    30    34 1   
    67    31    32 2   
    68    32    33 1   
    69    32    94 1   
    70    34    95 1   
    71    34    96 1   
    72    34    97 1   
    73    35    37 1   
    74    35    98 1   
    75    35    99 1   
    76    35   127 1   
    77    36   100 1   
    78    36   101 1   
    79    36   127 1   
    80    37    38 1   
    81    37    42 1   
    82    38    39 1   
    83    38   102 1   
    84    38   103 1   
    85    39    40 1   
    86    39   104 1   
    87    39   105 1   
    88    40    41 1   
    89    40    43 1   
    90    40   106 1   
    91    41    42 1   
    92    41   107 1   
    93    41   108 1   
    94    42   109 1   
    95    42   110 1   
    96    43    44 ar  
    97    43    48 ar  
    98    44    45 ar  
    99    44   111 1   
   100    45    46 ar  
   101    45    49 1   
   102    46    47 ar  
   103    46    51 1   
   104    47    48 ar  
   105    47   112 1   
   106    48   113 1   
   107    49    50 1   
   108    49    60 1   
   109    50    51 1   
   110    50    52 2   
   111    51    55 1   
   112    52    53 1   
   113    53    54 1   
   114    53    61 2   
   115    54    55 ar  
   116    54    56 ar  
   117    55    59 ar  
   118    56    57 ar  
   119    56    62 1   
   120    57    58 ar  
   121    57   114 1   
   122    58    59 ar  
   123    58   115 1   
   124    59   116 1   
   125    60    63 1   
   126    60    66 1   
   127    60   117 1   
   128    63    64 1   
   129    63   118 1   
   130    63   119 1   
   131    64    65 1   
   132    64   120 1   
   133    64   121 1   
   134    65    66 1   
   135    65   122 1   
   136    65   123 1   
   137    66   124 1   
   138    66   125 1   
   139   127   129 1   
   140   127   130 1   
@<TRIPOS>SUBSTRUCTURE
     1 IFF         1 TEMP              0 ****  ****    0 ROOT
