@<TRIPOS>MOLECULE
IFF
  131   140     1     0     0
SMALL
abcg2


@<TRIPOS>ATOM
      1 C4          32.0520   -18.2320    10.9580 ca         1 IFF      -0.094000
      2 C5          30.7790   -17.6500    10.9860 ca         1 IFF      -0.007000
      3 C6          29.6650   -18.4970    10.9610 ca         1 IFF      -0.094000
      4 C7          30.6210   -16.1930    11.0500 cc         1 IFF      -0.174000
      5 C8          31.2890   -21.9470    10.7000 c3         1 IFF       0.159000
      6 C13         28.0190   -22.9250    13.9460 c5         1 IFF      -0.079400
      7 C15         28.6140   -24.8180    15.2610 c5         1 IFF       0.074000
      8 C20         30.5440   -27.0120    14.4190 c3         1 IFF       0.051700
      9 C21         31.9540   -26.7720    15.0580 c3         1 IFF      -0.048000
     10 C24         32.2850   -27.9820    15.9400 c3         1 IFF      -0.089433
     11 C28         28.7510   -31.3870    12.8240 cx         1 IFF      -0.114900
     12 C1          29.8190   -19.8750    10.8930 ca         1 IFF      -0.099500
     13 C2          31.0860   -20.4490    10.8440 ca         1 IFF      -0.088300
     14 C3          32.1980   -19.6090    10.8850 ca         1 IFF      -0.099500
     15 N9          30.2130   -22.7100    11.3140 ns         1 IFF      -0.489900
     16 C11         28.9530   -23.7880    13.0840 c5         1 IFF       0.033700
     17 O12         31.0580   -22.6680    13.4170 o          1 IFF      -0.601100
     18 C14         27.4260   -23.9130    14.9420 c5         1 IFF       0.150300
     19 N16         29.3260   -24.8880    13.9810 n          1 IFF      -0.385800
     20 O17         26.3800   -24.6230    14.2750 oh         1 IFF      -0.659000
     21 C18         30.1150   -25.8640    13.5060 c          1 IFF       0.598100
     22 O19         30.5150   -25.8430    12.3380 o          1 IFF      -0.633100
     23 N22         30.5090   -28.2060    13.5940 ns         1 IFF      -0.481900
     24 C23         33.0400   -26.6130    13.9870 c3         1 IFF      -0.089433
     25 C25         31.9110   -25.5140    15.9320 c3         1 IFF      -0.089433
     26 O27         29.3760   -29.5550    15.0430 o          1 IFF      -0.611100
     27 C29         30.1230   -31.8370    13.2570 cx         1 IFF      -0.114900
     28 C30         29.8770   -30.4090    12.8910 cx         1 IFF       0.023000
     29 F31         30.4010   -29.9920    11.6710 f          1 IFF      -0.240000
     30 C32         31.2910   -15.2090    10.3620 cd         1 IFF       0.298300
     31 N33         30.8940   -13.9220    10.6630 nd         1 IFF      -0.637000
     32 C34         29.9470   -13.9070    11.5550 cc         1 IFF       0.419300
     33 S35         29.4530   -15.4590    12.1070 ss         1 IFF      -0.045400
     34 C36         32.3520   -15.4090     9.3280 c3         1 IFF      -0.121400
     35 C38         31.1300   -24.8910     9.0880 c3         1 IFF       0.159800
     36 C39         31.4660   -22.3350     9.2220 c3         1 IFF      -0.084400
     37 N40         31.7270   -26.1600     8.6570 n3         1 IFF      -0.720600
     38 C41         32.7150   -26.6660     9.6140 c6         1 IFF       0.162800
     39 C42         33.4070   -27.9150     9.0790 c6         1 IFF      -0.068900
     40 C43         32.3880   -29.0180     8.7840 c6         1 IFF      -0.022400
     41 C44         31.2950   -28.4540     7.8590 c6         1 IFF      -0.068900
     42 C45         30.6970   -27.1720     8.4250 c6         1 IFF       0.162800
     43 C46         32.9690   -30.2910     8.2090 ca         1 IFF      -0.049300
     44 C47         32.2910   -31.4930     8.4280 ca         1 IFF      -0.110000
     45 C48         32.7740   -32.6510     7.8420 ca         1 IFF      -0.019200
     46 C49         33.9410   -32.6480     7.0570 ca         1 IFF      -0.046200
     47 C50         34.6130   -31.4580     6.8220 ca         1 IFF      -0.088000
     48 C51         34.1130   -30.2960     7.4040 ca         1 IFF      -0.111000
     49 N52         32.2640   -33.9480     7.8420 na         1 IFF      -0.199600
     50 C53         33.0640   -34.7370     7.0760 cc         1 IFF       0.640300
     51 N54         34.1180   -33.9780     6.6170 na         1 IFF      -0.125400
     52 N55         32.8440   -35.9920     6.8030 nd         1 IFF      -0.762100
     53 C56         33.6910   -36.6560     5.9590 c          1 IFF       0.728100
     54 C57         34.9540   -35.9670     5.5510 ca         1 IFF      -0.178600
     55 C58         35.1430   -34.6070     5.9070 ca         1 IFF       0.062800
     56 C59         36.0040   -36.5830     4.8460 ca         1 IFF       0.065100
     57 C60         37.1640   -35.9040     4.5110 ca         1 IFF      -0.126000
     58 C61         37.3160   -34.5770     4.8910 ca         1 IFF      -0.063000
     59 C62         36.3190   -33.9280     5.5900 ca         1 IFF      -0.150000
     60 C63         31.0250   -34.4180     8.4570 c5         1 IFF       0.091300
     61 O64         33.4040   -37.7880     5.5710 o          1 IFF      -0.528100
     62 BR1         35.9870   -38.4180     4.2900 br         1 IFF      -0.061100
     63 C66         29.7550   -33.6470     8.0000 c5         1 IFF      -0.094900
     64 C67         28.9730   -33.3380     9.2930 c5         1 IFF      -0.083400
     65 C68         29.5370   -34.3180    10.3320 c5         1 IFF      -0.083400
     66 C69         31.0270   -34.3670     9.9940 c5         1 IFF      -0.094900
     67 H72         32.9300   -17.6040    11.0180 ha         1 IFF       0.119000
     68 H73         28.6690   -18.0720    10.9810 ha         1 IFF       0.119000
     69 H74         32.2050   -22.2090    11.2320 h1         1 IFF       0.082700
     70 H77         28.5990   -22.1760    14.4870 hc         1 IFF       0.076700
     71 H78         27.2570   -22.4240    13.3540 hc         1 IFF       0.076700
     72 H81         28.3000   -25.8030    15.5990 h1         1 IFF       0.063700
     73 H80         29.2360   -24.3600    16.0330 h1         1 IFF       0.063700
     74 H83         29.8350   -27.1590    15.2290 h1         1 IFF       0.084700
     75 H89         31.5320   -28.1210    16.7170 hc         1 IFF       0.041922
     76 H90         32.3460   -28.8990    15.3530 hc         1 IFF       0.041922
     77 H88         33.2520   -27.8270    16.4240 hc         1 IFF       0.041922
     78 H95         28.4270   -31.6610    11.8300 hc         1 IFF       0.094200
     79 H70         28.9400   -20.5070    10.8760 ha         1 IFF       0.114000
     80 H71         33.1930   -20.0400    10.8690 ha         1 IFF       0.114000
     81 H75         29.4650   -23.0470    10.7290 hn         1 IFF       0.317500
     82 H76         28.4260   -24.1950    12.2190 h1         1 IFF       0.074700
     83 H79         27.0460   -23.4240    15.8410 h1         1 IFF       0.058700
     84 H82         26.0390   -25.3010    14.8730 ho         1 IFF       0.447000
     85 H84         30.8370   -28.1040    12.6450 hn         1 IFF       0.348500
     86 H86         34.0120   -26.5160    14.4730 hc         1 IFF       0.041922
     87 H87         33.0810   -27.4810    13.3260 hc         1 IFF       0.041922
     88 H85         32.8740   -25.7280    13.3740 hc         1 IFF       0.041922
     89 H93         31.1570   -25.6040    16.7170 hc         1 IFF       0.041922
     90 H91         32.8800   -25.3740    16.4150 hc         1 IFF       0.041922
     91 H92         31.6970   -24.6200    15.3450 hc         1 IFF       0.041922
     92 H96         30.2950   -32.0530    14.3020 hc         1 IFF       0.094200
     93 H97         30.7100   -32.4040    12.5480 hc         1 IFF       0.094200
     94 H98         29.4850   -13.0070    11.9360 h5         1 IFF       0.053100
     95 H99         32.2310   -14.6760     8.5300 hc         1 IFF       0.052367
     96 H100        33.3500   -15.2720     9.7550 hc         1 IFF       0.052367
     97 H101        32.3070   -16.4090     8.9000 hc         1 IFF       0.052367
     98 H104        30.7440   -24.9730    10.1110 h1         1 IFF       0.040200
     99 H105        30.2740   -24.7000     8.4340 h1         1 IFF       0.040200
    100 H107        32.1140   -21.5780     8.7780 hc         1 IFF       0.050200
    101 H106        30.5000   -22.2470     8.7130 hc         1 IFF       0.050200
    102 H109        33.4590   -25.8920     9.7990 h1         1 IFF       0.037200
    103 H110        32.2370   -26.8940    10.5810 h1         1 IFF       0.037200
    104 H112        34.1430   -28.2640     9.8080 hc         1 IFF       0.047950
    105 H111        33.9470   -27.6450     8.1690 hc         1 IFF       0.047950
    106 H113        31.9050   -29.2810     9.7300 hc         1 IFF       0.058700
    107 H115        30.5050   -29.1950     7.7210 hc         1 IFF       0.047950
    108 H114        31.7300   -28.2490     6.8760 hc         1 IFF       0.047950
    109 H117        29.9650   -26.7640     7.7240 h1         1 IFF       0.037200
    110 H116        30.1550   -27.4050     9.3600 h1         1 IFF       0.037200
    111 H118        31.3980   -31.5020     9.0350 ha         1 IFF       0.133000
    112 H119        35.4830   -31.3900     6.1920 ha         1 IFF       0.127000
    113 H120        34.6370   -29.3710     7.2100 ha         1 IFF       0.124000
    114 H121        37.9490   -36.4100     3.9680 ha         1 IFF       0.136000
    115 H122        38.2290   -34.0500     4.6470 ha         1 IFF       0.122000
    116 H123        36.4720   -32.9130     5.9070 ha         1 IFF       0.126000
    117 H124        30.9450   -35.4550     8.1440 h1         1 IFF       0.106700
    118 H125        30.0110   -32.7430     7.4490 hc         1 IFF       0.057700
    119 H126        29.1750   -34.2790     7.3270 hc         1 IFF       0.057700
    120 H127        29.1750   -32.3140     9.6150 hc         1 IFF       0.048450
    121 H128        27.8950   -33.4320     9.1610 hc         1 IFF       0.048450
    122 H129        29.3440   -34.0100    11.3590 hc         1 IFF       0.048450
    123 H130        29.0920   -35.3080    10.1940 hc         1 IFF       0.048450
    124 H131        31.5530   -35.2190    10.4250 hc         1 IFF       0.057700
    125 H132        31.5200   -33.4580    10.3460 hc         1 IFF       0.057700
    126 C10         30.1860   -23.0120    12.6210 c          1 IFF       0.598100
    127 C37         32.0920   -23.7120     8.9660 c3         1 IFF      -0.074400
    128 C26         29.8930   -29.3440    13.9450 c          1 IFF       0.621100
    129 H102        32.9410   -23.8370     9.6420 hc         1 IFF       0.050200
    130 H103        32.4980   -23.7200     7.9510 hc         1 IFF       0.050200
    131 H94         27.9770   -31.2910    13.5710 hc         1 IFF       0.094200
@<TRIPOS>BOND
     1     1     2 ar  
     2     1    14 ar  
     3     1    67 1   
     4     2     3 ar  
     5     2     4 1   
     6     3    12 ar  
     7     3    68 1   
     8     4    30 2   
     9     4    33 1   
    10     5    13 1   
    11     5    15 1   
    12     5    36 1   
    13     5    69 1   
    14     6    16 1   
    15     6    18 1   
    16     6    70 1   
    17     6    71 1   
    18     7    18 1   
    19     7    19 1   
    20     7    72 1   
    21     7    73 1   
    22     8     9 1   
    23     8    21 1   
    24     8    23 1   
    25     8    74 1   
    26     9    10 1   
    27     9    24 1   
    28     9    25 1   
    29    10    75 1   
    30    10    76 1   
    31    10    77 1   
    32    11    27 1   
    33    11    28 1   
    34    11    78 1   
    35    11   131 1   
    36    12    13 ar  
    37    12    79 1   
    38    13    14 ar  
    39    14    80 1   
    40    15    81 1   
    41    15   126 1   
    42    16    19 1   
    43    16    82 1   
    44    16   126 1   
    45    17   126 2   
    46    18    20 1   
    47    18    83 1   
    48    19    21 1   
    49    20    84 1   
    50    21    22 2   
    51    23    85 1   
    52    23   128 1   
    53    24    86 1   
    54    24    87 1   
    55    24    88 1   
    56    25    89 1   
    57    25    90 1   
    58    25    91 1   
    59    26   128 2   
    60    27    28 1   
    61    27    92 1   
    62    27    93 1   
    63    28    29 1   
    64    28   128 1   
    65    30    31 1   
    66    30    34 1   
    67    31    32 2   
    68    32    33 1   
    69    32    94 1   
    70    34    95 1   
    71    34    96 1   
    72    34    97 1   
    73    35    37 1   
    74    35    98 1   
    75    35    99 1   
    76    35   127 1   
    77    36   100 1   
    78    36   101 1   
    79    36   127 1   
    80    37    38 1   
    81    37    42 1   
    82    38    39 1   
    83    38   102 1   
    84    38   103 1   
    85    39    40 1   
    86    39   104 1   
    87    39   105 1   
    88    40    41 1   
    89    40    43 1   
    90    40   106 1   
    91    41    42 1   
    92    41   107 1   
    93    41   108 1   
    94    42   109 1   
    95    42   110 1   
    96    43    44 ar  
    97    43    48 ar  
    98    44    45 ar  
    99    44   111 1   
   100    45    46 ar  
   101    45    49 1   
   102    46    47 ar  
   103    46    51 1   
   104    47    48 ar  
   105    47   112 1   
   106    48   113 1   
   107    49    50 1   
   108    49    60 1   
   109    50    51 1   
   110    50    52 2   
   111    51    55 1   
   112    52    53 1   
   113    53    54 1   
   114    53    61 2   
   115    54    55 ar  
   116    54    56 ar  
   117    55    59 ar  
   118    56    57 ar  
   119    56    62 1   
   120    57    58 ar  
   121    57   114 1   
   122    58    59 ar  
   123    58   115 1   
   124    59   116 1   
   125    60    63 1   
   126    60    66 1   
   127    60   117 1   
   128    63    64 1   
   129    63   118 1   
   130    63   119 1   
   131    64    65 1   
   132    64   120 1   
   133    64   121 1   
   134    65    66 1   
   135    65   122 1   
   136    65   123 1   
   137    66   124 1   
   138    66   125 1   
   139   127   129 1   
   140   127   130 1   
@<TRIPOS>SUBSTRUCTURE
     1 IFF         1 TEMP              0 ****  ****    0 ROOT
