@<TRIPOS>MOLECULE
IFG
   30    30     1     0     0
SMALL
bcc


@<TRIPOS>ATOM
      1 N1           1.2700    -0.4230     0.0540 n7         1 IFG      -0.839200
      2 C2           0.1050     0.0550     0.7710 c6         1 IFG       0.303900
      3 C3          -1.1530    -0.4320     0.0430 c6         1 IFG       0.102100
      4 C4          -1.1650     0.0540    -1.4020 c6         1 IFG       0.160100
      5 C5           0.1170    -0.3910    -2.0980 c6         1 IFG      -0.064700
      6 C6           0.1420     0.0640    -3.5480 c3         1 IFG       0.146400
      7 C8           0.4010    -0.5480     4.5060 c3         1 IFG      -0.182100
      8 C9           1.3400     0.0710    -1.3130 c6         1 IFG       0.174800
      9 N2           0.1160    -0.4730     2.1130 ns         1 IFG      -0.589900
     10 O7           0.4540     1.4700     3.2300 o          1 IFG      -0.595100
     11 O3          -2.3260     0.0330     0.6630 oh         1 IFG      -0.603800
     12 O4          -1.2540     1.4600    -1.4700 oh         1 IFG      -0.603800
     13 O6           1.2390    -0.5460    -4.1940 oh         1 IFG      -0.605800
     14 HN1          2.1030    -0.1390     0.5560 hn         1 IFG       0.368800
     15 HC2          0.0660     1.1470     0.8530 h2         1 IFG       0.081700
     16 HC3         -1.1200    -1.5330     0.0250 h1         1 IFG       0.047700
     17 HC4         -2.0220    -0.4100    -1.9120 h1         1 IFG       0.044700
     18 HC5          0.1050    -1.4880    -2.0900 hc         1 IFG       0.072700
     19 HC61        -0.8070    -0.2200    -4.0240 h1         1 IFG       0.029700
     20 HC62         0.2110     1.1570    -3.5990 h1         1 IFG       0.029700
     21 HC81        -0.2580    -0.1090     5.2530 hc         1 IFG       0.062033
     22 HC82         0.1350    -1.5960     4.3780 hc         1 IFG       0.062033
     23 HC83         1.4170    -0.5000     4.9000 hc         1 IFG       0.062033
     24 HC91         1.4170     1.1680    -1.3670 h1         1 IFG       0.050700
     25 HC92         2.2440    -0.3320    -1.7690 h1         1 IFG       0.050700
     26 HN2          0.1080    -1.4780     2.1980 hn         1 IFG       0.313500
     27 HO3         -2.2950    -0.2060     1.5950 ho         1 IFG       0.420000
     28 HO4         -2.0160     1.7390    -0.9510 ho         1 IFG       0.424000
     29 HO6          1.2980    -0.1890    -5.0840 ho         1 IFG       0.406000
     30 C7           0.3280     0.2550     3.2320 c          1 IFG       0.669100
@<TRIPOS>BOND
     1     1     2 1   
     2     1     8 1   
     3     1    14 1   
     4     2     3 1   
     5     2     9 1   
     6     2    15 1   
     7     3     4 1   
     8     3    11 1   
     9     3    16 1   
    10     4     5 1   
    11     4    12 1   
    12     4    17 1   
    13     5     6 1   
    14     5     8 1   
    15     5    18 1   
    16     6    13 1   
    17     6    19 1   
    18     6    20 1   
    19     7    21 1   
    20     7    22 1   
    21     7    23 1   
    22     7    30 1   
    23     8    24 1   
    24     8    25 1   
    25     9    26 1   
    26     9    30 1   
    27    10    30 2   
    28    11    27 1   
    29    12    28 1   
    30    13    29 1   
@<TRIPOS>SUBSTRUCTURE
     1 IFG         1 TEMP              0 ****  ****    0 ROOT
