@<TRIPOS>MOLECULE
IFG
   30    30     1     0     0
SMALL
No Charge or Current Charge


@<TRIPOS>ATOM
      1 N1           1.4000    -0.4180     0.0440 n7         1 IFG      -0.894400
      2 C2           0.2540     0.1060     0.7930 c6         1 IFG       0.303900
      3 C3          -1.1130    -0.2940     0.1330 c6         1 IFG       0.125300
      4 C4          -1.1420     0.1160    -1.3720 c6         1 IFG       0.183300
      5 C5           0.1180    -0.4180    -2.1120 c6         1 IFG      -0.064700
      6 C6           0.1280    -0.0130    -3.6130 c3         1 IFG       0.169600
      7 C8           0.2200    -0.6590     4.5450 c3         1 IFG      -0.182100
      8 C9           1.4110     0.0210    -1.3750 c6         1 IFG       0.174800
      9 N2           0.3950    -0.4590     2.1150 ns         1 IFG      -0.522900
     10 O7          -0.9690     0.9700     3.2170 o          1 IFG      -0.595100
     11 O3          -2.2320     0.3050     0.8310 oh         1 IFG      -0.666000
     12 O4          -1.2540     1.5450    -1.4930 oh         1 IFG      -0.666000
     13 O6           1.1740    -0.6720    -4.3420 oh         1 IFG      -0.668000
     14 HN1          2.2580    -0.0790     0.4960 hn         1 IFG       0.424000
     15 HC2          0.3340     1.2050     0.8460 h2         1 IFG       0.081700
     16 HC3         -1.1970    -1.3900     0.1810 h1         1 IFG       0.047700
     17 HC4         -2.0260    -0.3550    -1.8290 h1         1 IFG       0.044700
     18 HC5          0.0750    -1.5160    -2.0950 hc         1 IFG       0.072700
     19 HC61        -0.8470    -0.2720    -4.0480 h1         1 IFG       0.029700
     20 HC62         0.2440     1.0770    -3.6890 h1         1 IFG       0.029700
     21 HC81        -0.2780    -0.2350     5.4240 hc         1 IFG       0.062033
     22 HC82         0.0190    -1.7310     4.4430 hc         1 IFG       0.062033
     23 HC83         1.3110    -0.6350     4.6440 hc         1 IFG       0.062033
     24 HC91         1.5120     1.1160    -1.4240 h1         1 IFG       0.050700
     25 HC92         2.2880    -0.4120    -1.8790 h1         1 IFG       0.050700
     26 HN2          1.0130    -1.2520     2.2200 hn         1 IFG       0.313500
     27 HO3         -1.8950     0.5460     1.7330 ho         1 IFG       0.459000
     28 HO4         -1.9280     1.7970    -0.8210 ho         1 IFG       0.463000
     29 HO6          1.1000    -0.3770    -5.2770 ho         1 IFG       0.445000
     30 C7          -0.1740     0.0430     3.2540 c          1 IFG       0.602100
@<TRIPOS>BOND
     1     1     2 1   
     2     1     8 1   
     3     1    14 1   
     4     2     3 1   
     5     2     9 1   
     6     2    15 1   
     7     3     4 1   
     8     3    11 1   
     9     3    16 1   
    10     4     5 1   
    11     4    12 1   
    12     4    17 1   
    13     5     6 1   
    14     5     8 1   
    15     5    18 1   
    16     6    13 1   
    17     6    19 1   
    18     6    20 1   
    19     7    21 1   
    20     7    22 1   
    21     7    23 1   
    22     7    30 1   
    23     8    24 1   
    24     8    25 1   
    25     9    26 1   
    26     9    30 1   
    27    10    30 2   
    28    11    27 1   
    29    12    28 1   
    30    13    29 1   
@<TRIPOS>SUBSTRUCTURE
     1 IFG         1 TEMP              0 ****  ****    0 ROOT
