@<TRIPOS>MOLECULE
IFI
   52    56     1     0     0
SMALL
No Charge or Current Charge


@<TRIPOS>ATOM
      1 C13         94.7520    -4.6090    15.3860 cy         1 IFI       0.100000
      2 C15         93.1980    -3.7370    14.2210 cy         1 IFI       0.100000
      3 C16         93.2000    -9.4970    11.8940 cc         1 IFI       0.112600
      4 C17         94.1540    -8.8140    11.0460 cc         1 IFI      -0.209000
      5 C18         94.6980    -9.3490     9.8790 cd         1 IFI      -0.046000
      6 C19         92.7850   -10.7730    11.5400 cd         1 IFI      -0.159000
      7 C20         93.3490   -11.3070    10.3450 cd         1 IFI      -0.010000
      8 C23         93.9410   -12.4160     8.6850 cc         1 IFI       0.757200
      9 C26         94.6580   -13.4520     6.5180 c6         1 IFI       0.177300
     10 C27         95.1450   -14.8480     6.0340 c6         1 IFI       0.145100
     11 N1          90.7640    -8.3400    16.2030 na         1 IFI       0.181800
     12 C2          91.6360    -8.1380    15.1180 cc         1 IFI      -0.159600
     13 C3          92.1360    -6.8440    15.3660 cd         1 IFI      -0.252600
     14 C4          91.5140    -6.4160    16.5640 cd         1 IFI       0.261900
     15 N5          90.6910    -7.2920    17.0830 nc         1 IFI      -0.510800
     16 C7          91.8790    -9.1500    14.0240 c          1 IFI       0.635700
     17 C8          93.1150    -5.9780    14.6210 c          1 IFI       0.666700
     18 N9          92.7610    -8.8110    13.0240 ns         1 IFI      -0.398100
     19 O10         91.3110   -10.2310    14.0280 o          1 IFI      -0.583100
     20 O11         93.6380    -6.3730    13.5870 o          1 IFI      -0.648100
     21 N12         93.2570    -4.7440    15.3340 nj         1 IFI      -0.400800
     22 C14         94.5290    -3.1730    14.8130 cy         1 IFI      -0.116400
     23 N21         94.2500   -10.6290     9.5690 na         1 IFI       0.285400
     24 N22         94.6580   -11.3230     8.4780 nd         1 IFI      -0.671100
     25 N24         93.1300   -12.4750     9.7920 nc         1 IFI      -0.453300
     26 N25         93.9630   -13.5120     7.8470 nh         1 IFI      -0.706600
     27 O28         94.0710   -15.8130     6.0860 os         1 IFI      -0.449000
     28 C29         93.5540   -15.9900     7.4250 c6         1 IFI       0.145100
     29 C30         92.9900   -14.6520     7.9850 c6         1 IFI       0.177300
     30 H1          95.1520    -4.6240    16.4070 h1         1 IFI       0.062450
     31 H2          95.3530    -5.2570    14.7360 h1         1 IFI       0.062450
     32 H3          93.2920    -4.1000    13.1900 h1         1 IFI       0.062450
     33 H4          92.3480    -3.0510    14.3030 h1         1 IFI       0.062450
     34 H5          94.4640    -7.8170    11.3430 ha         1 IFI       0.149000
     35 H6          95.4120    -8.8730     9.2190 h4         1 IFI       0.160000
     36 H7          92.0780   -11.3600    12.1090 ha         1 IFI       0.174000
     37 H9          95.5330   -12.7880     6.5590 h1         1 IFI       0.059700
     38 H10         95.5140   -14.7750     5.0010 h1         1 IFI       0.052950
     39 H11         95.9740   -15.1940     6.6680 h1         1 IFI       0.052950
     40 H12         91.6370    -5.4750    17.0870 h4         1 IFI       0.045100
     41 H16         93.1500    -7.8880    13.1550 hn         1 IFI       0.380500
     42 H17         94.3880    -2.4010    15.5780 hc         1 IFI       0.066200
     43 H18         95.2690    -2.8260    14.0860 hc         1 IFI       0.066200
     44 H19         92.7610   -16.7500     7.4080 h1         1 IFI       0.052950
     45 H20         94.3610   -16.3560     8.0770 h1         1 IFI       0.052950
     46 H21         92.7190   -14.8260     9.0360 h1         1 IFI       0.059700
     47 H22         92.0600   -14.4090     7.4510 h1         1 IFI       0.059700
     48 C6          89.9440    -9.5330    16.4820 c3         1 IFI       0.068900
     49 H8          93.9760   -13.0340     5.7640 h1         1 IFI       0.059700
     50 H13         89.3680    -9.3890    17.4040 h1         1 IFI       0.072033
     51 H14         89.2500    -9.7030    15.6510 h1         1 IFI       0.072033
     52 H15         90.5960   -10.4060    16.6010 h1         1 IFI       0.072033
@<TRIPOS>BOND
     1     1    21 1   
     2     1    22 1   
     3     1    30 1   
     4     1    31 1   
     5     2    21 1   
     6     2    22 1   
     7     2    32 1   
     8     2    33 1   
     9     3     4 1   
    10     3     6 2   
    11     3    18 1   
    12     4     5 2   
    13     4    34 1   
    14     5    23 1   
    15     5    35 1   
    16     6     7 1   
    17     6    36 1   
    18     7    23 1   
    19     7    25 2   
    20     8    24 2   
    21     8    25 1   
    22     8    26 1   
    23     9    10 1   
    24     9    26 1   
    25     9    37 1   
    26     9    49 1   
    27    10    27 1   
    28    10    38 1   
    29    10    39 1   
    30    11    12 1   
    31    11    15 1   
    32    11    48 1   
    33    12    13 2   
    34    12    16 1   
    35    13    14 1   
    36    13    17 1   
    37    14    15 2   
    38    14    40 1   
    39    16    18 1   
    40    16    19 2   
    41    17    20 2   
    42    17    21 1   
    43    18    41 1   
    44    22    42 1   
    45    22    43 1   
    46    23    24 1   
    47    26    29 1   
    48    27    28 1   
    49    28    29 1   
    50    28    44 1   
    51    28    45 1   
    52    29    46 1   
    53    29    47 1   
    54    48    50 1   
    55    48    51 1   
    56    48    52 1   
@<TRIPOS>SUBSTRUCTURE
     1 IFI         1 TEMP              0 ****  ****    0 ROOT
