@<TRIPOS>MOLECULE
IFI
   52    56     1     0     0
SMALL
bcc


@<TRIPOS>ATOM
      1 C13         94.4510    -4.0790    13.9620 cy         1 IFI       0.100000
      2 C15         92.4820    -3.9470    14.8130 cy         1 IFI       0.100000
      3 C16         93.6920    -9.8890    12.4020 cc         1 IFI       0.112600
      4 C17         95.0050    -9.5790    11.9480 cc         1 IFI      -0.227000
      5 C18         95.5340   -10.2130    10.8700 cd         1 IFI      -0.013300
      6 C19         92.9530   -10.8470    11.7390 cd         1 IFI      -0.177000
      7 C20         93.5260   -11.4750    10.6250 cd         1 IFI       0.040700
      8 C23         94.0700   -12.5940     8.9380 cc         1 IFI       0.757200
      9 C26         95.0120   -13.4560     6.8860 c6         1 IFI       0.177300
     10 C27         95.0540   -14.7850     6.1560 c6         1 IFI       0.121900
     11 N1          90.8890    -8.3440    16.0970 na         1 IFI       0.160400
     12 C2          91.8540    -8.1820    15.1650 cc         1 IFI      -0.108900
     13 C3          92.4360    -6.9410    15.4260 cd         1 IFI      -0.317900
     14 C4          91.7340    -6.4610    16.5400 cd         1 IFI       0.327200
     15 N5          90.8210    -7.3220    16.9340 nc         1 IFI      -0.510800
     16 C7          92.0400    -9.1840    14.0800 c          1 IFI       0.702700
     17 C8          93.5730    -6.2790    14.7570 c          1 IFI       0.733700
     18 N9          93.2640    -9.1670    13.5070 ns         1 IFI      -0.465100
     19 O10         91.1360    -9.9360    13.7650 o          1 IFI      -0.583100
     20 O11         94.5340    -6.9160    14.3080 o          1 IFI      -0.648100
     21 N12         93.5360    -4.9550    14.6840 nj         1 IFI      -0.467800
     22 C14         93.3840    -2.9700    14.0320 cy         1 IFI      -0.116400
     23 N21         94.7920   -11.1390    10.2330 na         1 IFI       0.184000
     24 N22         95.1490   -11.8470     9.1450 nd         1 IFI      -0.671100
     25 N24         93.0540   -12.4030     9.8030 nc         1 IFI      -0.453300
     26 N25         94.0100   -13.5090     7.9340 nh         1 IFI      -0.706600
     27 O28         93.7840   -15.1570     5.6720 os         1 IFI      -0.402600
     28 C29         92.8590   -15.2700     6.7290 c6         1 IFI       0.121900
     29 C30         92.7060   -13.9650     7.4860 c6         1 IFI       0.177300
     30 H1          95.3760    -3.8770    14.5040 h1         1 IFI       0.062450
     31 H2          94.6950    -4.4390    12.9620 h1         1 IFI       0.062450
     32 H3          91.5480    -4.2290    14.3260 h1         1 IFI       0.062450
     33 H4          92.2770    -3.6530    15.8410 h1         1 IFI       0.062450
     34 H5          95.6000    -8.8310    12.4530 ha         1 IFI       0.167000
     35 H6          96.5220   -10.0180    10.4810 h4         1 IFI       0.178000
     36 H7          91.9580   -11.1310    12.0340 ha         1 IFI       0.192000
     37 H9          95.9920   -13.2610     7.3210 h1         1 IFI       0.059700
     38 H10         95.7240   -14.7110     5.2990 h1         1 IFI       0.052950
     39 H11         95.4500   -15.5580     6.8300 h1         1 IFI       0.052950
     40 H12         91.8850    -5.5420    17.0840 h4         1 IFI       0.045100
     41 H16         93.9210    -8.4590    13.8610 hn         1 IFI       0.380500
     42 H17         93.6800    -2.0830    14.5870 hc         1 IFI       0.066200
     43 H18         92.9860    -2.6720    13.0650 hc         1 IFI       0.066200
     44 H19         91.9000   -15.5570     6.2970 h1         1 IFI       0.052950
     45 H20         93.1670   -16.0620     7.4260 h1         1 IFI       0.052950
     46 H21         92.0560   -14.1280     8.3440 h1         1 IFI       0.059700
     47 H22         92.2280   -13.2120     6.8450 h1         1 IFI       0.059700
     48 C6          89.9800    -9.4570    16.3060 c3         1 IFI       0.039600
     49 H8          94.7970   -12.6430     6.1790 h1         1 IFI       0.059700
     50 H13         89.5370    -9.3190    17.2870 h1         1 IFI       0.072033
     51 H14         89.1950    -9.4690    15.5540 h1         1 IFI       0.072033
     52 H15         90.5140   -10.4010    16.2860 h1         1 IFI       0.072033
@<TRIPOS>BOND
     1     1    21 1   
     2     1    22 1   
     3     1    30 1   
     4     1    31 1   
     5     2    21 1   
     6     2    22 1   
     7     2    32 1   
     8     2    33 1   
     9     3     4 1   
    10     3     6 2   
    11     3    18 1   
    12     4     5 2   
    13     4    34 1   
    14     5    23 1   
    15     5    35 1   
    16     6     7 1   
    17     6    36 1   
    18     7    23 1   
    19     7    25 2   
    20     8    24 2   
    21     8    25 1   
    22     8    26 1   
    23     9    10 1   
    24     9    26 1   
    25     9    37 1   
    26     9    49 1   
    27    10    27 1   
    28    10    38 1   
    29    10    39 1   
    30    11    12 1   
    31    11    15 1   
    32    11    48 1   
    33    12    13 2   
    34    12    16 1   
    35    13    14 1   
    36    13    17 1   
    37    14    15 2   
    38    14    40 1   
    39    16    18 1   
    40    16    19 2   
    41    17    20 2   
    42    17    21 1   
    43    18    41 1   
    44    22    42 1   
    45    22    43 1   
    46    23    24 1   
    47    26    29 1   
    48    27    28 1   
    49    28    29 1   
    50    28    44 1   
    51    28    45 1   
    52    29    46 1   
    53    29    47 1   
    54    48    50 1   
    55    48    51 1   
    56    48    52 1   
@<TRIPOS>SUBSTRUCTURE
     1 IFI         1 TEMP              0 ****  ****    0 ROOT
