@<TRIPOS>MOLECULE
IFJ
  143   152     1     0     0
SMALL
No Charge or Current Charge


@<TRIPOS>ATOM
      1 N1         -29.5930     6.1390   -28.0270 ns         1 IFJ      -0.483900
      2 C4         -29.0580     6.6210   -29.2030 c          1 IFJ       0.604100
      3 C5         -26.9220     5.2850   -29.5010 c5         1 IFJ      -0.127400
      4 C6         -28.3920     5.4430   -29.9870 c5         1 IFJ       0.036700
      5 C8         -26.8650     5.1650   -31.9070 c5         1 IFJ       0.110000
      6 C15        -27.4210     8.3720   -33.1380 c3         1 IFJ      -0.090767
      7 C17        -29.8800     8.7810   -33.4540 c3         1 IFJ      -0.090767
      8 C22        -31.5640     4.7460   -37.9200 cx         1 IFJ      -0.114900
      9 C24        -33.9340     5.2140   -35.8390 c3         1 IFJ       0.166100
     10 C26        -30.2010    13.2780   -29.0890 c5         1 IFJ      -0.081900
     11 C28        -29.4840    11.5250   -30.6160 c5         1 IFJ      -0.095900
     12 O2         -29.1110     7.7990   -29.5350 o          1 IFJ      -0.601100
     13 O3         -26.6650     3.0820   -30.5700 oh         1 IFJ      -0.649000
     14 N7         -28.1730     5.6900   -31.4390 n          1 IFJ      -0.391800
     15 C9         -26.2820     4.4590   -30.6430 c5         1 IFJ       0.151300
     16 C11        -28.9660     6.3990   -33.7910 c3         1 IFJ       0.052700
     17 O12        -30.4030     5.8290   -31.9040 o          1 IFJ      -0.612100
     18 N13        -30.1150     5.9760   -34.6240 ns         1 IFJ      -0.480900
     19 C14        -28.6740     7.9430   -33.9480 c3         1 IFJ      -0.047000
     20 C16        -28.4090     8.3030   -35.4380 c3         1 IFJ      -0.090767
     21 C18        -30.0610     5.4010   -35.8690 c          1 IFJ       0.636100
     22 C19        -31.4640     5.0850   -36.4430 cx         1 IFJ       0.032200
     23 O20        -29.0030     5.1540   -36.4370 o          1 IFJ      -0.626100
     24 N21        -32.5920     5.8510   -35.8650 n3         1 IFJ      -0.731600
     25 C23        -31.6640     3.6430   -36.8930 cx         1 IFJ      -0.114900
     26 C25        -32.6460     7.2610   -36.3180 c3         1 IFJ       0.166100
     27 C27        -29.8730    11.7660   -29.1250 c5         1 IFJ      -0.081900
     28 C29        -31.0530    13.4010   -30.3730 c5         1 IFJ      -0.095900
     29 C30        -33.9380     9.0060   -30.0290 c6         1 IFJ      -0.072400
     30 C31        -34.6120     7.9260   -29.1570 c6         1 IFJ       0.187300
     31 N32        -34.2180     6.5750   -29.6300 n3         1 IFJ      -0.741600
     32 C33        -34.6600     6.3440   -31.0270 c6         1 IFJ       0.187300
     33 C34        -34.0130     7.3810   -31.9790 c6         1 IFJ      -0.072400
     34 C35        -34.2880     8.8480   -31.5380 c6         1 IFJ      -0.021400
     35 C36        -30.1220    12.7160   -31.4130 c5         1 IFJ       0.088300
     36 C37        -32.5100    10.6820   -32.0120 ca         1 IFJ      -0.102000
     37 C38        -33.5480     9.8330   -32.4710 ca         1 IFJ      -0.049300
     38 C39        -33.9000     9.8680   -33.8430 ca         1 IFJ      -0.122000
     39 C40        -33.1770    10.6570   -34.7580 ca         1 IFJ      -0.090000
     40 N43        -30.7650    12.3510   -32.6860 na         1 IFJ      -0.190600
     41 C44        -31.8040    11.4630   -32.9380 ca         1 IFJ      -0.021200
     42 C45        -32.0760    11.3890   -34.2860 ca         1 IFJ      -0.049200
     43 C46        -28.9300    13.7480   -35.4850 c          1 IFJ       0.733100
     44 N47        -29.3990    13.5980   -34.2080 nc         1 IFJ      -0.768100
     45 C48        -30.3850    12.7510   -33.9770 cd         1 IFJ       0.642300
     46 N49        -31.1910    12.1930   -34.9840 na         1 IFJ      -0.119400
     47 C50        -29.3300    12.6750   -36.4710 ca         1 IFJ      -0.184600
     48 C51        -30.4510    11.8730   -36.1380 ca         1 IFJ       0.062800
     49 C52        -30.7910    10.7820   -36.9680 ca         1 IFJ      -0.151000
     50 C53        -30.0550    10.5030   -38.1260 ca         1 IFJ      -0.065000
     51 C54        -28.9620    11.3060   -38.4670 ca         1 IFJ      -0.126000
     52 C55        -28.5870    12.3820   -37.6480 ca         1 IFJ       0.056100
     53 C56        -34.5360     5.4620   -28.6890 c3         1 IFJ       0.192800
     54 C57        -33.7880     5.5320   -27.3180 c3         1 IFJ       0.175300
     55 C58        -29.4080     7.4910   -25.9830 ca         1 IFJ      -0.087300
     56 C59        -29.0870     8.8620   -25.9480 ca         1 IFJ      -0.094000
     57 C60        -28.2220     9.3650   -24.9620 ca         1 IFJ      -0.097500
     58 C61        -27.6670     8.5070   -23.9930 ca         1 IFJ      -0.005000
     59 C62        -27.9720     7.1350   -24.0400 ca         1 IFJ      -0.097500
     60 C63        -28.8370     6.6290   -25.0250 ca         1 IFJ      -0.094000
     61 C64        -26.7570     9.0150   -22.9690 cc         1 IFJ      -0.183000
     62 C65        -30.3420     6.9560   -27.0660 c3         1 IFJ       0.163000
     63 C66        -31.5720     6.2100   -26.4840 c3         1 IFJ       0.150600
     64 O67        -32.3910     5.7870   -27.5910 os         1 IFJ      -0.447000
     65 C68        -27.0900    10.0610   -22.1310 cd         1 IFJ       0.300300
     66 N69        -26.1020    10.3730   -21.2070 nd         1 IFJ      -0.637000
     67 C70        -25.0670     9.5490   -21.3550 cc         1 IFJ       0.413300
     68 S71        -25.2060     8.3280   -22.5960 ss         1 IFJ      -0.030400
     69 C72        -28.3760    10.8450   -22.1120 c3         1 IFJ      -0.121400
     70 C73        -33.9110     4.2310   -26.4940 c3         1 IFJ      -0.130100
     71 H1         -29.5210     5.1450   -27.8580 hn         1 IFJ       0.324500
     72 H2         -26.8500     4.7940   -28.5230 hc         1 IFJ       0.066700
     73 H3         -26.4270     6.2600   -29.4080 hc         1 IFJ       0.066700
     74 H4         -28.9770     4.5250   -29.8370 h1         1 IFJ       0.070700
     75 H5         -26.9710     4.4620   -32.7440 h1         1 IFJ       0.068700
     76 H6         -26.2050     5.9810   -32.2250 h1         1 IFJ       0.068700
     77 H7         -27.5570     8.2130   -32.0620 hc         1 IFJ       0.039922
     78 H8         -26.5330     7.8200   -33.4660 hc         1 IFJ       0.039922
     79 H9         -27.2130     9.4400   -33.2800 hc         1 IFJ       0.039922
     80 H10        -30.0970     8.5910   -32.3970 hc         1 IFJ       0.039922
     81 H11        -29.6620     9.8490   -33.5640 hc         1 IFJ       0.039922
     82 H12        -30.7880     8.5640   -34.0300 hc         1 IFJ       0.039922
     83 H13        -32.4700     5.0220   -38.4520 hc         1 IFJ       0.083700
     84 H14        -30.6600     4.7980   -38.5220 hc         1 IFJ       0.083700
     85 H15        -33.9050     4.2610   -35.2950 h1         1 IFJ       0.034033
     86 H16        -34.6580     5.8610   -35.3250 h1         1 IFJ       0.034033
     87 H17        -34.3060     5.0300   -36.8550 h1         1 IFJ       0.034033
     88 H18        -29.2960    13.8960   -29.1320 hc         1 IFJ       0.048450
     89 H19        -30.7550    13.5630   -28.1870 hc         1 IFJ       0.048450
     90 H20        -29.8380    10.5470   -30.9560 hc         1 IFJ       0.058450
     91 H21        -28.3960    11.5170   -30.7490 hc         1 IFJ       0.058450
     92 H22        -26.2190     2.7020   -29.7810 ho         1 IFJ       0.444000
     93 H23        -25.1860     4.5380   -30.6260 h1         1 IFJ       0.053700
     94 H24        -28.0830     5.8480   -34.1350 h1         1 IFJ       0.087700
     95 H25        -31.0570     6.1130   -34.2720 hn         1 IFJ       0.352500
     96 H26        -27.5840     7.7060   -35.8450 hc         1 IFJ       0.039922
     97 H27        -29.2940     8.1300   -36.0610 hc         1 IFJ       0.039922
     98 H28        -28.1420     9.3620   -35.5460 hc         1 IFJ       0.039922
     99 H30        -32.6270     3.1550   -36.7810 hc         1 IFJ       0.083700
    100 H31        -30.8180     2.9650   -36.8040 hc         1 IFJ       0.083700
    101 H32        -33.4000     7.8220   -35.7510 h1         1 IFJ       0.034033
    102 H33        -31.6780     7.7580   -36.1720 h1         1 IFJ       0.034033
    103 H34        -32.9050     7.3210   -37.3830 h1         1 IFJ       0.034033
    104 H35        -30.7470    11.1660   -28.8440 hc         1 IFJ       0.048450
    105 H36        -29.0650    11.4970   -28.4360 hc         1 IFJ       0.048450
    106 H37        -31.2630    14.4450   -30.6350 hc         1 IFJ       0.058450
    107 H38        -32.0190    12.8960   -30.2670 hc         1 IFJ       0.058450
    108 H39        -32.8530     8.9140   -29.8820 hc         1 IFJ       0.055450
    109 H40        -34.2290    10.0030   -29.6720 hc         1 IFJ       0.055450
    110 H41        -34.2990     8.0870   -28.1150 h1         1 IFJ       0.029700
    111 H42        -35.7050     8.0470   -29.1930 h1         1 IFJ       0.029700
    112 H44        -35.7560     6.4100   -31.1000 h1         1 IFJ       0.029700
    113 H45        -34.3700     5.3370   -31.3600 h1         1 IFJ       0.029700
    114 H46        -34.3800     7.2090   -32.9980 hc         1 IFJ       0.055450
    115 H47        -32.9290     7.2080   -32.0100 hc         1 IFJ       0.055450
    116 H48        -35.3660     9.0340   -31.6460 hc         1 IFJ       0.045700
    117 H49        -29.3120    13.4260   -31.6350 h1         1 IFJ       0.105700
    118 H50        -32.2320    10.7220   -30.9660 ha         1 IFJ       0.138000
    119 H51        -34.7280     9.2640   -34.2050 ha         1 IFJ       0.116000
    120 H52        -33.4720    10.6840   -35.8030 ha         1 IFJ       0.125000
    121 H54        -31.6160    10.1260   -36.7290 ha         1 IFJ       0.124000
    122 H55        -30.3280     9.6590   -38.7560 ha         1 IFJ       0.120000
    123 H56        -28.3870    11.0800   -39.3620 ha         1 IFJ       0.135000
    124 H57        -35.6170     5.4270   -28.4990 h1         1 IFJ       0.040200
    125 H58        -34.2660     4.5070   -29.1600 h1         1 IFJ       0.040200
    126 H59        -34.2190     6.3570   -26.7350 h1         1 IFJ       0.034700
    127 H60        -29.5030     9.5400   -26.6890 ha         1 IFJ       0.114500
    128 H61        -27.9740    10.4240   -24.9600 ha         1 IFJ       0.118000
    129 H62        -27.5400     6.4570   -23.3070 ha         1 IFJ       0.118000
    130 H63        -29.0560     5.5640   -25.0450 ha         1 IFJ       0.114500
    131 H64        -30.7510     7.8170   -27.6120 h1         1 IFJ       0.085700
    132 H65        -32.1220     6.9000   -25.8310 h1         1 IFJ       0.029700
    133 H66        -31.2520     5.3460   -25.8880 h1         1 IFJ       0.029700
    134 H67        -24.1660     9.5850   -20.7560 h5         1 IFJ       0.052100
    135 H68        -28.5520    11.2970   -21.1290 hc         1 IFJ       0.051367
    136 H69        -28.3500    11.6540   -22.8510 hc         1 IFJ       0.051367
    137 H70        -29.2350    10.2040   -22.3370 hc         1 IFJ       0.051367
    138 H71        -33.4610     4.3490   -25.5010 hc         1 IFJ       0.041367
    139 H72        -34.9670     3.9700   -26.3530 hc         1 IFJ       0.041367
    140 H73        -33.4170     3.3980   -27.0070 hc         1 IFJ       0.041367
    141 C10        -29.2520     5.9440   -32.3150 c          1 IFJ       0.605100
    142 Br1        -27.0110    13.3470   -38.1870 br         1 IFJ      -0.049100
    143 O42        -28.2040    14.6900   -35.7520 o          1 IFJ      -0.524100
@<TRIPOS>BOND
     1     1     2 1   
     2     1    62 1   
     3     1    71 1   
     4     2     4 1   
     5     2    12 2   
     6     3     4 1   
     7     3    15 1   
     8     3    72 1   
     9     3    73 1   
    10     4    14 1   
    11     4    74 1   
    12     5    14 1   
    13     5    15 1   
    14     5    75 1   
    15     5    76 1   
    16     6    19 1   
    17     6    77 1   
    18     6    78 1   
    19     6    79 1   
    20     7    19 1   
    21     7    80 1   
    22     7    81 1   
    23     7    82 1   
    24     8    22 1   
    25     8    25 1   
    26     8    83 1   
    27     8    84 1   
    28     9    24 1   
    29     9    85 1   
    30     9    86 1   
    31     9    87 1   
    32    10    27 1   
    33    10    28 1   
    34    10    88 1   
    35    10    89 1   
    36    11    27 1   
    37    11    35 1   
    38    11    90 1   
    39    11    91 1   
    40    13    15 1   
    41    13    92 1   
    42    14   141 1   
    43    15    93 1   
    44    16    18 1   
    45    16    19 1   
    46    16    94 1   
    47    16   141 1   
    48    17   141 2   
    49    18    21 1   
    50    18    95 1   
    51    19    20 1   
    52    20    96 1   
    53    20    97 1   
    54    20    98 1   
    55    21    22 1   
    56    21    23 2   
    57    22    24 1   
    58    22    25 1   
    59    24    26 1   
    60    25    99 1   
    61    25   100 1   
    62    26   101 1   
    63    26   102 1   
    64    26   103 1   
    65    27   104 1   
    66    27   105 1   
    67    28    35 1   
    68    28   106 1   
    69    28   107 1   
    70    29    30 1   
    71    29    34 1   
    72    29   108 1   
    73    29   109 1   
    74    30    31 1   
    75    30   110 1   
    76    30   111 1   
    77    31    32 1   
    78    31    53 1   
    79    32    33 1   
    80    32   112 1   
    81    32   113 1   
    82    33    34 1   
    83    33   114 1   
    84    33   115 1   
    85    34    37 1   
    86    34   116 1   
    87    35    40 1   
    88    35   117 1   
    89    36    37 ar  
    90    36    41 ar  
    91    36   118 1   
    92    37    38 ar  
    93    38    39 ar  
    94    38   119 1   
    95    39    42 ar  
    96    39   120 1   
    97    40    41 1   
    98    40    45 1   
    99    41    42 ar  
   100    42    46 1   
   101    43    44 1   
   102    43    47 1   
   103    43   143 2   
   104    44    45 2   
   105    45    46 1   
   106    46    48 1   
   107    47    48 ar  
   108    47    52 ar  
   109    48    49 ar  
   110    49    50 ar  
   111    49   121 1   
   112    50    51 ar  
   113    50   122 1   
   114    51    52 ar  
   115    51   123 1   
   116    52   142 1   
   117    53    54 1   
   118    53   124 1   
   119    53   125 1   
   120    54    64 1   
   121    54    70 1   
   122    54   126 1   
   123    55    56 ar  
   124    55    60 ar  
   125    55    62 1   
   126    56    57 ar  
   127    56   127 1   
   128    57    58 ar  
   129    57   128 1   
   130    58    59 ar  
   131    58    61 1   
   132    59    60 ar  
   133    59   129 1   
   134    60   130 1   
   135    61    65 2   
   136    61    68 1   
   137    62    63 1   
   138    62   131 1   
   139    63    64 1   
   140    63   132 1   
   141    63   133 1   
   142    65    66 1   
   143    65    69 1   
   144    66    67 2   
   145    67    68 1   
   146    67   134 1   
   147    69   135 1   
   148    69   136 1   
   149    69   137 1   
   150    70   138 1   
   151    70   139 1   
   152    70   140 1   
@<TRIPOS>SUBSTRUCTURE
     1 IFJ         1 TEMP              0 ****  ****    0 ROOT
