@<TRIPOS>MOLECULE
IFJ
  143   152     1     0     0
SMALL
abcg2


@<TRIPOS>ATOM
      1 N1         -29.6840     5.8310   -27.9390 ns         1 IFJ      -0.483900
      2 C4         -28.7180     5.9210   -28.8630 c          1 IFJ       0.604100
      3 C5         -27.1110     3.9840   -29.0750 c5         1 IFJ      -0.127400
      4 C6         -28.4030     4.6230   -29.5920 c5         1 IFJ       0.036700
      5 C8         -26.8460     4.2660   -31.4060 c5         1 IFJ       0.110000
      6 C15        -26.8700     7.5390   -32.5270 c3         1 IFJ      -0.090767
      7 C17        -29.1860     8.3670   -32.8970 c3         1 IFJ      -0.090767
      8 C22        -31.0700     4.2450   -37.2050 cx         1 IFJ      -0.114900
      9 C24        -33.4700     5.2490   -35.1610 c3         1 IFJ       0.166100
     10 C26        -30.8670    13.3410   -29.5860 c5         1 IFJ      -0.081900
     11 C28        -29.7020    11.8770   -31.1280 c5         1 IFJ      -0.095900
     12 O2         -28.0950     6.9480   -29.0790 o          1 IFJ      -0.601100
     13 O3         -27.3010     2.0920   -30.5930 oh         1 IFJ      -0.649000
     14 N7         -28.1050     4.8760   -30.9920 n          1 IFJ      -0.391800
     15 C9         -26.5700     3.2600   -30.3020 c5         1 IFJ       0.151300
     16 C11        -28.6530     5.8710   -33.1880 c3         1 IFJ       0.052700
     17 O12        -30.1010     5.8370   -31.2840 o          1 IFJ      -0.612100
     18 N13        -29.8080     5.6110   -34.0060 ns         1 IFJ      -0.480900
     19 C14        -28.1470     7.3390   -33.3430 c3         1 IFJ      -0.047000
     20 C16        -27.8200     7.5740   -34.8200 c3         1 IFJ      -0.090767
     21 C18        -29.8250     4.7600   -35.0410 c          1 IFJ       0.636100
     22 C19        -31.1490     4.6940   -35.7630 cx         1 IFJ       0.032200
     23 O20        -28.8690     4.0720   -35.3810 o          1 IFJ      -0.626100
     24 N21        -32.1050     5.6840   -35.3510 n3         1 IFJ      -0.731600
     25 C23        -31.5640     3.3030   -36.1680 cx         1 IFJ      -0.114900
     26 C25        -32.0170     6.9080   -36.1250 c3         1 IFJ       0.166100
     27 C27        -30.2650    11.9410   -29.7010 c5         1 IFJ      -0.081900
     28 C29        -31.4940    13.5640   -30.9580 c5         1 IFJ      -0.095900
     29 C30        -34.4660     9.2300   -30.7540 c6         1 IFJ      -0.072400
     30 C31        -35.0220     8.0950   -29.9060 c6         1 IFJ       0.187300
     31 N32        -34.0620     7.0190   -29.7900 n3         1 IFJ      -0.741600
     32 C33        -33.7140     6.4630   -31.0790 c6         1 IFJ       0.187300
     33 C34        -33.0830     7.5330   -31.9510 c6         1 IFJ      -0.072400
     34 C35        -34.0360     8.7170   -32.1280 c6         1 IFJ      -0.021400
     35 C36        -30.4390    12.9900   -31.9140 c5         1 IFJ       0.088300
     36 C37        -32.4740    10.6630   -32.5360 ca         1 IFJ      -0.102000
     37 C38        -33.4200     9.7630   -33.0200 ca         1 IFJ      -0.049300
     38 C39        -33.7610     9.8040   -34.3720 ca         1 IFJ      -0.122000
     39 C40        -33.1710    10.6850   -35.2680 ca         1 IFJ      -0.090000
     40 N43        -30.9770    12.5640   -33.1950 na         1 IFJ      -0.190600
     41 C44        -31.8940    11.5540   -33.4200 ca         1 IFJ      -0.021200
     42 C45        -32.2070    11.5530   -34.7830 ca         1 IFJ      -0.049200
     43 C46        -29.7780    14.7760   -35.7260 c          1 IFJ       0.733100
     44 N47        -29.9350    14.2080   -34.5010 nc         1 IFJ      -0.768100
     45 C48        -30.7170    13.1860   -34.3650 cd         1 IFJ       0.642300
     46 N49        -31.4260    12.5660   -35.3570 na         1 IFJ      -0.119400
     47 C50        -30.4020    14.0870   -36.8950 ca         1 IFJ      -0.184600
     48 C51        -31.2200    12.9590   -36.6750 ca         1 IFJ       0.062800
     49 C52        -31.7750    12.2460   -37.7330 ca         1 IFJ      -0.151000
     50 C53        -31.5490    12.6650   -39.0260 ca         1 IFJ      -0.065000
     51 C54        -30.7700    13.7820   -39.2840 ca         1 IFJ      -0.126000
     52 C55        -30.2010    14.4760   -38.2300 ca         1 IFJ       0.056100
     53 C56        -34.4030     6.0430   -28.7780 c3         1 IFJ       0.192800
     54 C57        -33.7500     6.3540   -27.4370 c3         1 IFJ       0.175300
     55 C58        -29.1960     7.4020   -26.1060 ca         1 IFJ      -0.087300
     56 C59        -28.9280     8.7480   -25.8850 ca         1 IFJ      -0.094000
     57 C60        -28.0940     9.1490   -24.8530 ca         1 IFJ      -0.097500
     58 C61        -27.5150     8.2070   -24.0030 ca         1 IFJ      -0.005000
     59 C62        -27.7790     6.8540   -24.2320 ca         1 IFJ      -0.097500
     60 C63        -28.6060     6.4600   -25.2700 ca         1 IFJ      -0.094000
     61 C64        -26.6480     8.6260   -22.9010 cc         1 IFJ      -0.183000
     62 C65        -30.1440     6.9900   -27.2070 c3         1 IFJ       0.163000
     63 C66        -31.5260     6.7090   -26.6230 c3         1 IFJ       0.150600
     64 O67        -32.3570     6.3060   -27.6730 os         1 IFJ      -0.447000
     65 C68        -26.8230     9.6330   -21.9890 cd         1 IFJ       0.300300
     66 N69        -25.8160     9.7530   -21.0700 nd         1 IFJ      -0.637000
     67 C70        -24.8900     8.8710   -21.2570 cc         1 IFJ       0.413300
     68 S71        -25.1560     7.8180   -22.5810 ss         1 IFJ      -0.030400
     69 C72        -27.9960    10.5500   -21.8990 c3         1 IFJ      -0.121400
     70 C73        -34.2060     5.3740   -26.3670 c3         1 IFJ      -0.130100
     71 H1         -30.1950     4.9660   -27.8530 hn         1 IFJ       0.324500
     72 H2         -27.2810     3.3270   -28.2220 hc         1 IFJ       0.066700
     73 H3         -26.4010     4.7560   -28.7690 hc         1 IFJ       0.066700
     74 H4         -29.2410     3.9250   -29.4990 h1         1 IFJ       0.070700
     75 H5         -26.9260     3.7850   -32.3810 h1         1 IFJ       0.068700
     76 H6         -26.0400     5.0010   -31.4530 h1         1 IFJ       0.068700
     77 H7         -27.0360     7.4050   -31.4580 hc         1 IFJ       0.039922
     78 H8         -26.0830     6.8500   -32.8410 hc         1 IFJ       0.039922
     79 H9         -26.4950     8.5530   -32.6750 hc         1 IFJ       0.039922
     80 H10        -29.3840     8.3210   -31.8260 hc         1 IFJ       0.039922
     81 H11        -28.8140     9.3700   -33.1180 hc         1 IFJ       0.039922
     82 H12        -30.1370     8.2580   -33.4230 hc         1 IFJ       0.039922
     83 H13        -31.8030     4.6740   -37.8760 hc         1 IFJ       0.083700
     84 H14        -30.0940     4.0840   -37.6430 hc         1 IFJ       0.083700
     85 H15        -33.5160     4.4220   -34.4540 h1         1 IFJ       0.034033
     86 H16        -34.0490     6.0730   -34.7410 h1         1 IFJ       0.034033
     87 H17        -33.9730     4.9380   -36.0880 h1         1 IFJ       0.034033
     88 H18        -30.0790    14.0790   -29.4100 hc         1 IFJ       0.048450
     89 H19        -31.5860    13.4340   -28.7720 hc         1 IFJ       0.048450
     90 H20        -29.8310    10.8940   -31.5790 hc         1 IFJ       0.058450
     91 H21        -28.6320    12.0800   -31.1360 hc         1 IFJ       0.058450
     92 H22        -27.2330     1.4960   -29.8390 ho         1 IFJ       0.444000
     93 H23        -25.4970     3.0560   -30.2150 h1         1 IFJ       0.053700
     94 H24        -27.8530     5.2260   -33.5520 h1         1 IFJ       0.087700
     95 H25        -30.6800     6.0840   -33.8100 hn         1 IFJ       0.352500
     96 H26        -27.1010     6.8420   -35.1940 hc         1 IFJ       0.039922
     97 H27        -28.7090     7.5280   -35.4490 hc         1 IFJ       0.039922
     98 H28        -27.3810     8.5650   -34.9490 hc         1 IFJ       0.039922
     99 H30        -32.6190     3.0640   -36.1580 hc         1 IFJ       0.083700
    100 H31        -30.9230     2.4880   -35.8570 hc         1 IFJ       0.083700
    101 H32        -32.5790     7.6980   -35.6260 h1         1 IFJ       0.034033
    102 H33        -30.9800     7.2370   -36.1940 h1         1 IFJ       0.034033
    103 H34        -32.4060     6.8060   -37.1470 h1         1 IFJ       0.034033
    104 H35        -31.0520    11.1920   -29.5660 hc         1 IFJ       0.048450
    105 H36        -29.5070    11.7390   -28.9440 hc         1 IFJ       0.048450
    106 H37        -31.7130    14.6080   -31.1790 hc         1 IFJ       0.058450
    107 H38        -32.4340    13.0110   -31.0290 hc         1 IFJ       0.058450
    108 H39        -33.6140     9.6710   -30.2280 hc         1 IFJ       0.055450
    109 H40        -35.2190    10.0140   -30.8620 hc         1 IFJ       0.055450
    110 H41        -35.2600     8.4740   -28.9090 h1         1 IFJ       0.029700
    111 H42        -35.9750     7.7430   -30.3420 h1         1 IFJ       0.029700
    112 H44        -34.5880     6.0340   -31.6020 h1         1 IFJ       0.029700
    113 H45        -33.0000     5.6500   -30.9350 h1         1 IFJ       0.029700
    114 H46        -32.8100     7.1110   -32.9220 hc         1 IFJ       0.055450
    115 H47        -32.1580     7.8740   -31.4780 hc         1 IFJ       0.055450
    116 H48        -34.9330     8.3440   -32.6370 hc         1 IFJ       0.045700
    117 H49        -29.7300    13.7790   -32.1570 h1         1 IFJ       0.105700
    118 H50        -32.2020    10.6660   -31.4900 ha         1 IFJ       0.138000
    119 H51        -34.5130     9.1200   -34.7470 ha         1 IFJ       0.116000
    120 H52        -33.4990    10.6710   -36.2950 ha         1 IFJ       0.125000
    121 H54        -32.3590    11.3580   -37.5700 ha         1 IFJ       0.124000
    122 H55        -31.9780    12.1110   -39.8490 ha         1 IFJ       0.120000
    123 H56        -30.6040    14.0940   -40.3050 ha         1 IFJ       0.135000
    124 H57        -35.4900     5.9490   -28.6370 h1         1 IFJ       0.040200
    125 H58        -34.0510     5.0580   -29.0970 h1         1 IFJ       0.040200
    126 H59        -34.0260     7.3730   -27.1230 h1         1 IFJ       0.034700
    127 H60        -29.3610     9.4960   -26.5390 ha         1 IFJ       0.114500
    128 H61        -27.8750    10.2010   -24.7230 ha         1 IFJ       0.118000
    129 H62        -27.3460     6.1020   -23.5840 ha         1 IFJ       0.118000
    130 H63        -28.7910     5.4030   -25.4250 ha         1 IFJ       0.114500
    131 H64        -30.2380     7.8250   -27.9090 h1         1 IFJ       0.085700
    132 H65        -31.8860     7.6290   -26.1430 h1         1 IFJ       0.029700
    133 H66        -31.4470     5.9440   -25.8370 h1         1 IFJ       0.029700
    134 H67        -24.0040     8.7840   -20.6430 h5         1 IFJ       0.052100
    135 H68        -28.2660    10.7140   -20.8560 hc         1 IFJ       0.051367
    136 H69        -27.7710    11.5270   -22.3340 hc         1 IFJ       0.051367
    137 H70        -28.8640    10.1500   -22.4180 hc         1 IFJ       0.051367
    138 H71        -33.7690     5.5900   -25.3920 hc         1 IFJ       0.041367
    139 H72        -35.2890     5.4260   -26.2530 hc         1 IFJ       0.041367
    140 H73        -33.9450     4.3480   -26.6360 hc         1 IFJ       0.041367
    141 C10        -29.0100     5.5200   -31.7460 c          1 IFJ       0.605100
    142 BR1        -29.1320    15.9450   -38.7430 br         1 IFJ      -0.049100
    143 O42        -29.1370    15.8050   -35.8470 o          1 IFJ      -0.524100
@<TRIPOS>BOND
     1     1     2 1   
     2     1    62 1   
     3     1    71 1   
     4     2     4 1   
     5     2    12 2   
     6     3     4 1   
     7     3    15 1   
     8     3    72 1   
     9     3    73 1   
    10     4    14 1   
    11     4    74 1   
    12     5    14 1   
    13     5    15 1   
    14     5    75 1   
    15     5    76 1   
    16     6    19 1   
    17     6    77 1   
    18     6    78 1   
    19     6    79 1   
    20     7    19 1   
    21     7    80 1   
    22     7    81 1   
    23     7    82 1   
    24     8    22 1   
    25     8    25 1   
    26     8    83 1   
    27     8    84 1   
    28     9    24 1   
    29     9    85 1   
    30     9    86 1   
    31     9    87 1   
    32    10    27 1   
    33    10    28 1   
    34    10    88 1   
    35    10    89 1   
    36    11    27 1   
    37    11    35 1   
    38    11    90 1   
    39    11    91 1   
    40    13    15 1   
    41    13    92 1   
    42    14   141 1   
    43    15    93 1   
    44    16    18 1   
    45    16    19 1   
    46    16    94 1   
    47    16   141 1   
    48    17   141 2   
    49    18    21 1   
    50    18    95 1   
    51    19    20 1   
    52    20    96 1   
    53    20    97 1   
    54    20    98 1   
    55    21    22 1   
    56    21    23 2   
    57    22    24 1   
    58    22    25 1   
    59    24    26 1   
    60    25    99 1   
    61    25   100 1   
    62    26   101 1   
    63    26   102 1   
    64    26   103 1   
    65    27   104 1   
    66    27   105 1   
    67    28    35 1   
    68    28   106 1   
    69    28   107 1   
    70    29    30 1   
    71    29    34 1   
    72    29   108 1   
    73    29   109 1   
    74    30    31 1   
    75    30   110 1   
    76    30   111 1   
    77    31    32 1   
    78    31    53 1   
    79    32    33 1   
    80    32   112 1   
    81    32   113 1   
    82    33    34 1   
    83    33   114 1   
    84    33   115 1   
    85    34    37 1   
    86    34   116 1   
    87    35    40 1   
    88    35   117 1   
    89    36    37 ar  
    90    36    41 ar  
    91    36   118 1   
    92    37    38 ar  
    93    38    39 ar  
    94    38   119 1   
    95    39    42 ar  
    96    39   120 1   
    97    40    41 1   
    98    40    45 1   
    99    41    42 ar  
   100    42    46 1   
   101    43    44 1   
   102    43    47 1   
   103    43   143 2   
   104    44    45 2   
   105    45    46 1   
   106    46    48 1   
   107    47    48 ar  
   108    47    52 ar  
   109    48    49 ar  
   110    49    50 ar  
   111    49   121 1   
   112    50    51 ar  
   113    50   122 1   
   114    51    52 ar  
   115    51   123 1   
   116    52   142 1   
   117    53    54 1   
   118    53   124 1   
   119    53   125 1   
   120    54    64 1   
   121    54    70 1   
   122    54   126 1   
   123    55    56 ar  
   124    55    60 ar  
   125    55    62 1   
   126    56    57 ar  
   127    56   127 1   
   128    57    58 ar  
   129    57   128 1   
   130    58    59 ar  
   131    58    61 1   
   132    59    60 ar  
   133    59   129 1   
   134    60   130 1   
   135    61    65 2   
   136    61    68 1   
   137    62    63 1   
   138    62   131 1   
   139    63    64 1   
   140    63   132 1   
   141    63   133 1   
   142    65    66 1   
   143    65    69 1   
   144    66    67 2   
   145    67    68 1   
   146    67   134 1   
   147    69   135 1   
   148    69   136 1   
   149    69   137 1   
   150    70   138 1   
   151    70   139 1   
   152    70   140 1   
@<TRIPOS>SUBSTRUCTURE
     1 IFJ         1 TEMP              0 ****  ****    0 ROOT
