@<TRIPOS>MOLECULE
IFL
   22    22     1     0     0
SMALL
bcc


@<TRIPOS>ATOM
      1 O4          -2.2770     0.1430     0.4550 oh         1 IFL      -0.597800
      2 C4          -0.9830    -0.2600     0.0800 c6         1 IFL       0.161100
      3 C3          -0.6010     0.3250    -1.2720 c6         1 IFL       0.035100
      4 O3          -1.4640    -0.1890    -2.2470 oh         1 IFL      -0.596800
      5 C2           0.8530     0.0590    -1.6470 c          1 IFL       0.673500
      6 N            1.7210    -0.0940    -0.6430 ns         1 IFL      -0.564900
      7 C7           1.3960    -0.3120     0.7550 c6         1 IFL       0.113000
      8 C5           0.0180     0.2260     1.1200 c6         1 IFL      -0.077700
      9 C6          -0.3730    -0.2170     2.5220 c3         1 IFL       0.147400
     10 O6           0.6230     0.2140     3.4240 oh         1 IFL      -0.607800
     11 O2           1.1810     0.0550    -2.8280 o          1 IFL      -0.651500
     12 H4          -2.9040    -0.2060    -0.1870 ho         1 IFL       0.427000
     13 HA          -0.9190    -1.3590     0.0180 h1         1 IFL       0.046700
     14 H3          -0.6950     1.4220    -1.1960 h1         1 IFL       0.064700
     15 HB          -1.1330     0.0770    -3.1120 ho         1 IFL       0.438000
     16 H            2.6840    -0.2430    -0.9070 hn         1 IFL       0.320500
     17 H7C1         2.1630     0.1740     1.3550 h1         1 IFL       0.054200
     18 H7C2         1.4410    -1.3840     0.9780 h1         1 IFL       0.054200
     19 H5           0.0470     1.3220     1.0920 hc         1 IFL       0.081700
     20 H6C1        -0.4790    -1.3120     2.5360 h1         1 IFL       0.034200
     21 H6C2        -1.3480     0.2050     2.7800 h1         1 IFL       0.034200
     22 H6           0.3680    -0.0680     4.3070 ho         1 IFL       0.410000
@<TRIPOS>BOND
     1     1     2 1   
     2     1    12 1   
     3     2     3 1   
     4     2     8 1   
     5     2    13 1   
     6     3     4 1   
     7     3     5 1   
     8     3    14 1   
     9     4    15 1   
    10     5     6 1   
    11     5    11 2   
    12     6     7 1   
    13     6    16 1   
    14     7     8 1   
    15     7    17 1   
    16     7    18 1   
    17     8     9 1   
    18     8    19 1   
    19     9    10 1   
    20     9    20 1   
    21     9    21 1   
    22    10    22 1   
@<TRIPOS>SUBSTRUCTURE
     1 IFL         1 TEMP              0 ****  ****    0 ROOT
