@<TRIPOS>MOLECULE
IFL
   22    22     1     0     0
SMALL
No Charge or Current Charge


@<TRIPOS>ATOM
      1 O4          -2.3340     0.1520     0.4500 oh         1 IFL      -0.660000
      2 C4          -1.0070    -0.2610     0.0980 c6         1 IFL       0.184300
      3 C3          -0.6630     0.2990    -1.3100 c6         1 IFL       0.058300
      4 O3          -1.5290    -0.2850    -2.3210 oh         1 IFL      -0.659000
      5 C2           0.8460     0.1510    -1.6780 c          1 IFL       0.531000
      6 N            1.7290    -0.2250    -0.6900 ns         1 IFL      -0.497900
      7 C7           1.4360    -0.3320     0.7500 c6         1 IFL       0.113000
      8 C5           0.0360     0.2030     1.1460 c6         1 IFL      -0.077700
      9 C6          -0.3390    -0.2320     2.5940 c3         1 IFL       0.170600
     10 O6           0.6240     0.2250     3.5540 oh         1 IFL      -0.670000
     11 O2           1.2500     0.3460    -2.8150 o          1 IFL      -0.576000
     12 H4          -2.8640     0.0240    -0.3700 ho         1 IFL       0.466000
     13 HA          -0.9670    -1.3600     0.0460 h1         1 IFL       0.046700
     14 H3          -0.8200     1.3870    -1.2740 h1         1 IFL       0.064700
     15 HB          -1.1210    -0.0760    -3.1950 ho         1 IFL       0.477000
     16 H            2.6920    -0.3360    -0.9870 hn         1 IFL       0.320500
     17 H7C1         2.2150     0.2060     1.3100 h1         1 IFL       0.054200
     18 H7C2         1.5100    -1.3950     1.0220 h1         1 IFL       0.054200
     19 H5           0.0650     1.3010     1.1470 hc         1 IFL       0.081700
     20 H6C1        -0.4150    -1.3280     2.6240 h1         1 IFL       0.034200
     21 H6C2        -1.3290     0.1740     2.8430 h1         1 IFL       0.034200
     22 H6           0.3030    -0.0600     4.4390 ho         1 IFL       0.449000
@<TRIPOS>BOND
     1     1     2 1   
     2     1    12 1   
     3     2     3 1   
     4     2     8 1   
     5     2    13 1   
     6     3     4 1   
     7     3     5 1   
     8     3    14 1   
     9     4    15 1   
    10     5     6 1   
    11     5    11 2   
    12     6     7 1   
    13     6    16 1   
    14     7     8 1   
    15     7    17 1   
    16     7    18 1   
    17     8     9 1   
    18     8    19 1   
    19     9    10 1   
    20     9    20 1   
    21     9    21 1   
    22    10    22 1   
@<TRIPOS>SUBSTRUCTURE
     1 IFL         1 TEMP              0 ****  ****    0 ROOT
