@<TRIPOS>MOLECULE
IFM
   23    23     1     0     0
SMALL
No Charge or Current Charge


@<TRIPOS>ATOM
      1 O4           8.6980    -7.2650    10.8070 oh         1 IFM      -0.661000
      2 C4          10.0750    -7.4420    10.4190 c6         1 IFM       0.124300
      3 C3          10.7140    -8.6170    11.2130 c6         1 IFM       0.130300
      4 O3          10.5630    -8.3900    12.6240 oh         1 IFM      -0.657000
      5 C2          12.2230    -8.7780    10.8190 c6         1 IFM       0.167800
      6 N           12.5540    -8.2540     9.4560 n7         1 IFM      -0.870400
      7 C1          11.4630    -8.4810     8.4850 c6         1 IFM       0.164800
      8 C5          10.1780    -7.6880     8.8790 c6         1 IFM      -0.156700
      9 C6          10.0390    -6.3610     8.0760 c3         1 IFM       0.162600
     10 O6          11.1300    -5.4620     8.3290 oh         1 IFM      -0.661000
     11 H4           8.1860    -7.9940    10.3930 ho         1 IFM       0.436000
     12 HA          10.6520    -6.5370    10.6680 h1         1 IFM       0.102700
     13 H3          10.1890    -9.5410    10.9270 h1         1 IFM       0.037700
     14 HB           9.7040    -7.9140    12.7100 ho         1 IFM       0.456000
     15 H2C1        12.8610    -8.2690    11.5580 h1         1 IFM       0.057700
     16 H2C2        12.4740    -9.8480    10.8640 h1         1 IFM       0.057700
     17 H           12.6680    -7.2340     9.5180 hn         1 IFM       0.411000
     18 H1C1        11.2330    -9.5580     8.4500 h1         1 IFM       0.051200
     19 H1C2        11.7920    -8.1930     7.4740 h1         1 IFM       0.051200
     20 H5           9.3250    -8.3040     8.5620 hc         1 IFM       0.059700
     21 H6C1         9.9900    -6.6060     7.0060 h1         1 IFM       0.050700
     22 H6C2         9.0840    -5.8870     8.3440 h1         1 IFM       0.050700
     23 H6          10.9680    -4.6560     7.7900 ho         1 IFM       0.435000
@<TRIPOS>BOND
     1     1     2 1   
     2     1    11 1   
     3     2     3 1   
     4     2     8 1   
     5     2    12 1   
     6     3     4 1   
     7     3     5 1   
     8     3    13 1   
     9     4    14 1   
    10     5     6 1   
    11     5    15 1   
    12     5    16 1   
    13     6     7 1   
    14     6    17 1   
    15     7     8 1   
    16     7    18 1   
    17     7    19 1   
    18     8     9 1   
    19     8    20 1   
    20     9    10 1   
    21     9    21 1   
    22     9    22 1   
    23    10    23 1   
@<TRIPOS>SUBSTRUCTURE
     1 IFM         1 TEMP              0 ****  ****    0 ROOT
