@<TRIPOS>MOLECULE
IFM
   23    23     1     0     0
SMALL
abcg2


@<TRIPOS>ATOM
      1 O4           8.5190    -7.6970    10.8340 oh         1 IFM      -0.661000
      2 C4           9.8800    -7.5430    10.4050 c6         1 IFM       0.124300
      3 C3          10.7770    -8.5660    11.0870 c6         1 IFM       0.130300
      4 O3          10.7010    -8.4480    12.5070 oh         1 IFM      -0.657000
      5 C2          12.2250    -8.3340    10.6840 c6         1 IFM       0.167800
      6 N           12.4150    -8.4530     9.2280 n7         1 IFM      -0.870400
      7 C1          11.1810    -8.5220     8.4390 c6         1 IFM       0.164800
      8 C5          10.0340    -7.5810     8.8700 c6         1 IFM      -0.156700
      9 C6          10.1190    -6.1750     8.2800 c3         1 IFM       0.162600
     10 O6          11.2330    -5.4080     8.7520 oh         1 IFM      -0.661000
     11 H4           8.1770    -8.5250    10.4680 ho         1 IFM       0.436000
     12 HA          10.1730    -6.5600    10.7800 h1         1 IFM       0.102700
     13 H3          10.4580    -9.5740    10.7910 h1         1 IFM       0.037700
     14 HB           9.7620    -8.4060    12.7340 ho         1 IFM       0.456000
     15 H2C1        12.5050    -7.3340    11.0350 h1         1 IFM       0.057700
     16 H2C2        12.8570    -9.0520    11.2140 h1         1 IFM       0.057700
     17 H           12.9920    -7.6900     8.9040 hn         1 IFM       0.411000
     18 H1C1        10.8060    -9.5480     8.4760 h1         1 IFM       0.051200
     19 H1C2        11.4420    -8.3270     7.3970 h1         1 IFM       0.051200
     20 H5           9.1130    -8.0120     8.4620 hc         1 IFM       0.059700
     21 H6C1        10.1410    -6.2350     7.1870 h1         1 IFM       0.050700
     22 H6C2         9.2300    -5.6100     8.5670 h1         1 IFM       0.050700
     23 H6          12.0240    -5.6790     8.2710 ho         1 IFM       0.435000
@<TRIPOS>BOND
     1     1     2 1   
     2     1    11 1   
     3     2     3 1   
     4     2     8 1   
     5     2    12 1   
     6     3     4 1   
     7     3     5 1   
     8     3    13 1   
     9     4    14 1   
    10     5     6 1   
    11     5    15 1   
    12     5    16 1   
    13     6     7 1   
    14     6    17 1   
    15     7     8 1   
    16     7    18 1   
    17     7    19 1   
    18     8     9 1   
    19     8    20 1   
    20     9    10 1   
    21     9    21 1   
    22     9    22 1   
    23    10    23 1   
@<TRIPOS>SUBSTRUCTURE
     1 IFM         1 TEMP              0 ****  ****    0 ROOT
