@<TRIPOS>MOLECULE
IFN
   54    58     1     0     0
SMALL
bcc


@<TRIPOS>ATOM
      1 C10         26.1200    52.8700    -7.5430 ca         1 IFN      -0.117900
      2 C11         24.7800    53.2110    -7.3430 ca         1 IFN      -0.098500
      3 C13         26.7390    54.3880    -5.7710 ca         1 IFN      -0.132500
      4 C15         27.0960    53.4660    -6.7440 ca         1 IFN      -0.098500
      5 C20         31.2250    48.4650   -13.7410 cy         1 IFN       0.054700
      6 C21         32.3600    49.4120   -14.1380 cy         1 IFN       0.105900
      7 C23         32.3100    47.7500   -12.9250 cy         1 IFN       0.105900
      8 C24         25.5200    48.2880   -13.8450 c          1 IFN       0.696300
      9 C26         25.2230    47.2130   -14.8450 cc         1 IFN      -0.302400
     10 C27         25.7780    45.8820   -14.7620 c          1 IFN       0.702700
     11 C28         24.5560    45.3510   -16.7720 cc         1 IFN       0.070600
     12 C1          26.7890    48.8700   -11.8560 ca         1 IFN       0.082600
     13 C2          28.1710    49.1020   -11.6550 ca         1 IFN      -0.150600
     14 C3          28.6140    49.9980   -10.6920 ca         1 IFN      -0.101000
     15 C4          25.8430    49.5430   -11.1020 ca         1 IFN      -0.069000
     16 C5          26.2820    50.4530   -10.1430 ca         1 IFN       0.103400
     17 C6          27.6540    50.6630    -9.9480 ca         1 IFN      -0.100200
     18 N7          27.7270    51.5870    -8.9450 na         1 IFN      -0.255300
     19 C8          26.4520    51.8980    -8.5840 cc         1 IFN       0.482400
     20 N9          25.5630    51.2340    -9.2820 nd         1 IFN      -0.574100
     21 C12         25.4060    54.7240    -5.5810 ca         1 IFN      -0.111000
     22 C14         24.4280    54.1310    -6.3700 ca         1 IFN      -0.132500
     23 N18         30.1510    49.0780   -13.0080 ns         1 IFN      -0.566900
     24 O19         29.1510    47.1190   -12.5450 o          1 IFN      -0.591100
     25 O22         33.3180    48.6510   -13.4000 oq         1 IFN      -0.402600
     26 O25         25.0010    49.3880   -13.9570 o          1 IFN      -0.607100
     27 C29         24.0430    46.6100   -16.8550 cd         1 IFN      -0.181300
     28 N30         25.3830    45.0050   -15.7680 n          1 IFN      -0.322000
     29 C31         24.3830    47.5470   -15.8710 cd         1 IFN       0.048000
     30 O32         26.5490    45.4750   -13.8960 o          1 IFN      -0.621500
     31 BR33        22.8950    47.0710   -18.2680 br         1 IFN      -0.044700
     32 C34         25.9140    43.6460   -15.7070 c3         1 IFN       0.072300
     33 H1          24.0170    52.7540    -7.9570 ha         1 IFN       0.140500
     34 H2          27.5080    54.8410    -5.1590 ha         1 IFN       0.135500
     35 H3          28.1440    53.2210    -6.8600 ha         1 IFN       0.140500
     36 H4          30.8330    47.8690   -14.5660 h1         1 IFN       0.083700
     37 H6          32.2550    50.4360   -13.7640 h1         1 IFN       0.059200
     38 H7          32.1730    47.8030   -11.8420 h1         1 IFN       0.059200
     39 H8          32.5060    46.7140   -13.2120 h1         1 IFN       0.059200
     40 H9          24.3320    44.5810   -17.4960 h4         1 IFN       0.166000
     41 H10         29.6720    50.1570   -10.5220 ha         1 IFN       0.138000
     42 H11         24.7870    49.3640   -11.2440 ha         1 IFN       0.168000
     43 H12         28.5790    51.9760    -8.5700 hn         1 IFN       0.307700
     44 H14         25.1310    55.4440    -4.8220 ha         1 IFN       0.134000
     45 H15         23.3860    54.3880    -6.2280 ha         1 IFN       0.135500
     46 H17         30.1110    50.0830   -12.9490 hn         1 IFN       0.326500
     47 H18         23.9800    48.5500   -15.9140 ha         1 IFN       0.180000
     48 H19         25.5250    43.0790   -16.5470 h1         1 IFN       0.062367
     49 H20         27.0000    43.6620   -15.7610 h1         1 IFN       0.062367
     50 H21         25.6100    43.1650   -14.7810 h1         1 IFN       0.062367
     51 N16         26.3770    47.9630   -12.8530 ns         1 IFN      -0.486100
     52 C17         29.1850    48.3380   -12.4410 c          1 IFN       0.681700
     53 H5          32.5830    49.4500   -15.2070 h1         1 IFN       0.059200
     54 H16         26.8090    47.0450   -12.8990 hn         1 IFN       0.379500
@<TRIPOS>BOND
     1     1     2 ar  
     2     1     4 ar  
     3     1    19 1   
     4     2    22 ar  
     5     2    33 1   
     6     3     4 ar  
     7     3    21 ar  
     8     3    34 1   
     9     4    35 1   
    10     5     6 1   
    11     5     7 1   
    12     5    23 1   
    13     5    36 1   
    14     6    25 1   
    15     6    37 1   
    16     6    53 1   
    17     7    25 1   
    18     7    38 1   
    19     7    39 1   
    20     8     9 1   
    21     8    26 2   
    22     8    51 1   
    23     9    10 1   
    24     9    29 2   
    25    10    28 1   
    26    10    30 2   
    27    11    27 2   
    28    11    28 1   
    29    11    40 1   
    30    12    13 ar  
    31    12    15 ar  
    32    12    51 1   
    33    13    14 ar  
    34    13    52 1   
    35    14    17 ar  
    36    14    41 1   
    37    15    16 ar  
    38    15    42 1   
    39    16    17 ar  
    40    16    20 1   
    41    17    18 1   
    42    18    19 1   
    43    18    43 1   
    44    19    20 2   
    45    21    22 ar  
    46    21    44 1   
    47    22    45 1   
    48    23    46 1   
    49    23    52 1   
    50    24    52 2   
    51    27    29 1   
    52    27    31 1   
    53    28    32 1   
    54    29    47 1   
    55    32    48 1   
    56    32    49 1   
    57    32    50 1   
    58    51    54 1   
@<TRIPOS>SUBSTRUCTURE
     1 IFN         1 TEMP              0 ****  ****    0 ROOT
