@<TRIPOS>MOLECULE
IFN
   54    58     1     0     0
SMALL
No Charge or Current Charge


@<TRIPOS>ATOM
      1 C10         26.0700    53.0540    -7.5720 ca         1 IFN      -0.117900
      2 C11         24.7430    53.1850    -7.1010 ca         1 IFN      -0.080500
      3 C13         26.7930    54.6150    -5.8260 ca         1 IFN      -0.114500
      4 C15         27.0930    53.7820    -6.9180 ca         1 IFN      -0.080500
      5 C20         31.5430    48.6570   -13.4570 cy         1 IFN       0.054700
      6 C21         32.9360    48.4160   -12.7910 cy         1 IFN       0.129100
      7 C23         31.6770    47.1420   -13.8180 cy         1 IFN       0.129100
      8 C24         25.0290    48.2010   -13.8460 c          1 IFN       0.629300
      9 C26         24.9040    47.0090   -14.7360 cc         1 IFN      -0.302400
     10 C27         25.9790    45.9870   -14.8470 c          1 IFN       0.560200
     11 C28         24.5330    44.8340   -16.4600 cc         1 IFN       0.020600
     12 C1          26.6890    49.3490   -12.2640 ca         1 IFN      -0.010000
     13 C2          28.0810    49.6840   -12.1570 ca         1 IFN      -0.150600
     14 C3          28.4920    50.5910   -11.1400 ca         1 IFN      -0.083000
     15 C4          25.7540    49.9100   -11.3540 ca         1 IFN      -0.051000
     16 C5          26.2050    50.7970   -10.3740 ca         1 IFN       0.103400
     17 C6          27.5220    51.1150   -10.2840 ca         1 IFN      -0.100200
     18 N7          27.6450    51.9880    -9.2470 na         1 IFN      -0.305600
     19 C8          26.3700    52.1770    -8.7170 cc         1 IFN       0.482400
     20 N9          25.4580    51.4490    -9.3970 nd         1 IFN      -0.574100
     21 C12         25.4710    54.7350    -5.3700 ca         1 IFN      -0.093000
     22 C14         24.4460    54.0190    -6.0080 ca         1 IFN      -0.114500
     23 N18         30.4240    49.1350   -12.6760 ns         1 IFN      -0.499900
     24 O19         28.8390    48.7070   -14.2340 o          1 IFN      -0.591100
     25 O22         33.1370    47.3290   -13.7650 oq         1 IFN      -0.449000
     26 O25         24.0990    48.9840   -13.6860 o          1 IFN      -0.607100
     27 C29         23.5290    45.7660   -16.3390 cd         1 IFN      -0.181300
     28 N30         25.7230    44.9280   -15.7450 n          1 IFN      -0.255000
     29 C31         23.7200    46.8790   -15.4550 cd         1 IFN      -0.002000
     30 O32         27.0220    46.0160   -14.2080 o          1 IFN      -0.546000
     31 Br33        21.9260    45.5960   -17.3200 br         1 IFN      -0.044700
     32 C34         26.7680    43.8870   -15.9040 c3         1 IFN       0.072300
     33 H1          23.9320    52.6400    -7.5800 ha         1 IFN       0.122500
     34 H2          27.5880    55.1690    -5.3320 ha         1 IFN       0.117500
     35 H3          28.1260    53.7110    -7.2470 ha         1 IFN       0.122500
     36 H4          31.6290    49.2910   -14.3480 h1         1 IFN       0.083700
     37 H6          32.8980    48.0380   -11.7620 h1         1 IFN       0.059200
     38 H7          31.3250    46.4510   -13.0430 h1         1 IFN       0.059200
     39 H8          31.3180    46.8560   -14.8130 h1         1 IFN       0.059200
     40 H9          24.4850    43.9610   -17.1040 h4         1 IFN       0.216000
     41 H10         29.5270    50.9040   -11.0260 ha         1 IFN       0.120000
     42 H11         24.7000    49.6520   -11.3830 ha         1 IFN       0.150000
     43 H12         28.4940    52.4220    -8.9140 hn         1 IFN       0.358000
     44 H14         25.2410    55.3800    -4.5250 ha         1 IFN       0.116000
     45 H15         23.4210    54.1100    -5.6570 ha         1 IFN       0.117500
     46 H17         30.5740    49.4760   -11.7350 hn         1 IFN       0.326500
     47 H18         22.9240    47.6180   -15.3680 ha         1 IFN       0.230000
     48 H19         26.4710    43.1420   -16.6520 h1         1 IFN       0.062367
     49 H20         27.7080    44.3520   -16.2280 h1         1 IFN       0.062367
     50 H21         26.9320    43.3780   -14.9460 h1         1 IFN       0.062367
     51 N16         26.2570    48.4000   -13.2330 ns         1 IFN      -0.160000
     52 C17         29.1170    49.1190   -13.1160 c          1 IFN       0.614700
     53 H5          33.6640    49.2270   -12.9020 h1         1 IFN       0.059200
     54 H16         26.9750    47.7480   -13.5280 hn         1 IFN       0.213000
@<TRIPOS>BOND
     1     1     2 ar  
     2     1     4 ar  
     3     1    19 1   
     4     2    22 ar  
     5     2    33 1   
     6     3     4 ar  
     7     3    21 ar  
     8     3    34 1   
     9     4    35 1   
    10     5     6 1   
    11     5     7 1   
    12     5    23 1   
    13     5    36 1   
    14     6    25 1   
    15     6    37 1   
    16     6    53 1   
    17     7    25 1   
    18     7    38 1   
    19     7    39 1   
    20     8     9 1   
    21     8    26 2   
    22     8    51 1   
    23     9    10 1   
    24     9    29 2   
    25    10    28 1   
    26    10    30 2   
    27    11    27 2   
    28    11    28 1   
    29    11    40 1   
    30    12    13 ar  
    31    12    15 ar  
    32    12    51 1   
    33    13    14 ar  
    34    13    52 1   
    35    14    17 ar  
    36    14    41 1   
    37    15    16 ar  
    38    15    42 1   
    39    16    17 ar  
    40    16    20 1   
    41    17    18 1   
    42    18    19 1   
    43    18    43 1   
    44    19    20 2   
    45    21    22 ar  
    46    21    44 1   
    47    22    45 1   
    48    23    46 1   
    49    23    52 1   
    50    24    52 2   
    51    27    29 1   
    52    27    31 1   
    53    28    32 1   
    54    29    47 1   
    55    32    48 1   
    56    32    49 1   
    57    32    50 1   
    58    51    54 1   
@<TRIPOS>SUBSTRUCTURE
     1 IFN         1 TEMP              0 ****  ****    0 ROOT
