@<TRIPOS>MOLECULE
IFO
   59    60     1     0     0
SMALL
bcc


@<TRIPOS>ATOM
      1 O6          -3.7470   -22.5360   -20.7290 oh         1 IFO      -0.572800
      2 C6          -7.6120   -28.3510   -19.8420 ce         1 IFO      -0.274600
      3 C7          -7.7800   -29.1100   -18.6300 c          1 IFO       0.600100
      4 C8          -9.4890   -27.0860   -20.7090 c          1 IFO       0.666100
      5 C5          -6.4170   -27.7640   -20.1390 c2         1 IFO       0.198000
      6 C4          -4.9300   -26.3380   -21.4510 c3         1 IFO       0.193500
      7 C1          -5.9760   -24.1430   -22.2600 c3         1 IFO      -0.088100
      8 C2          -5.1070   -24.8060   -21.2010 c3         1 IFO      -0.033700
      9 O2          -9.2630   -26.0950   -20.0380 o          1 IFO      -0.599100
     10 C3          -5.6700   -24.5940   -19.8040 c3         1 IFO      -0.088100
     11 N1          -6.1540   -27.0540   -21.2310 nu         1 IFO      -0.741000
     12 O1          -6.9120   -29.3600   -17.8100 o          1 IFO      -0.561100
     13 N2          -8.7280   -28.1990   -20.7000 ns         1 IFO      -0.473100
     14 C9         -10.6940   -27.0930   -21.6290 c3         1 IFO       0.049400
     15 O3         -10.7780   -28.3090   -22.3270 os         1 IFO      -0.341900
     16 C10        -11.8530   -28.5500   -23.1130 ca         1 IFO       0.140100
     17 C11        -12.8710   -27.6300   -23.3450 ca         1 IFO      -0.184500
     18 C12        -13.9330   -27.9830   -24.1720 ca         1 IFO      -0.091000
     19 C13        -13.9900   -29.2320   -24.7680 ca         1 IFO      -0.160000
     20 C14        -12.9640   -30.1420   -24.5320 ca         1 IFO      -0.091000
     21 C15        -11.9010   -29.8090   -23.7110 ca         1 IFO      -0.184500
     22 C16         -4.4360   -26.6630   -22.8570 c          1 IFO       0.634100
     23 O4          -5.0530   -27.3070   -23.6600 o          1 IFO      -0.513000
     24 O5          -3.2450   -26.1330   -23.0640 os         1 IFO      -0.438900
     25 C17         -2.6540   -26.2400   -24.3730 c3         1 IFO       0.203700
     26 C18         -1.5700   -25.2150   -24.4600 ca         1 IFO      -0.168300
     27 C19         -0.2250   -25.5650   -24.4210 ca         1 IFO      -0.048000
     28 C20          0.7810   -24.6160   -24.5200 ca         1 IFO      -0.186000
     29 C21          0.4160   -23.2910   -24.6540 ca         1 IFO       0.182900
     30 F1           1.3680   -22.3570   -24.7580 f          1 IFO      -0.128900
     31 C22         -0.9050   -22.8850   -24.6880 ca         1 IFO      -0.220000
     32 C23         -1.8700   -23.8660   -24.5910 ca         1 IFO       0.175900
     33 F2          -3.1540   -23.4950   -24.6380 f          1 IFO      -0.136900
     34 S1          -3.3990   -24.0300   -21.3020 s4         1 IFO       0.542700
     35 O7          -2.5990   -24.7560   -20.2820 o          1 IFO      -0.505200
     36 H1          -4.0130   -22.5450   -19.7930 ho         1 IFO       0.445000
     37 H3          -8.8140   -29.4770   -18.4850 h4         1 IFO      -0.013800
     38 H4          -5.6020   -27.8720   -19.4320 h4         1 IFO       0.166000
     39 H5          -4.1900   -26.7120   -20.7360 h1         1 IFO       0.110700
     40 H6          -6.1040   -23.0830   -22.0440 hc         1 IFO       0.052700
     41 H7          -5.5660   -24.2290   -23.2670 hc         1 IFO       0.052700
     42 H8          -6.9720   -24.5890   -22.2620 hc         1 IFO       0.052700
     43 H9          -5.0210   -25.0060   -19.0300 hc         1 IFO       0.052700
     44 H10         -5.8430   -23.5380   -19.5980 hc         1 IFO       0.052700
     45 H11         -6.6450   -25.0710   -19.7150 hc         1 IFO       0.052700
     46 H12         -9.0010   -28.9680   -21.2940 hn         1 IFO       0.338500
     47 H13        -10.6020   -26.2410   -22.3120 h1         1 IFO       0.065200
     48 H14        -11.5800   -26.9230   -21.0060 h1         1 IFO       0.065200
     49 H15        -12.8570   -26.6440   -22.9000 ha         1 IFO       0.140000
     50 H16        -14.7210   -27.2620   -24.3470 ha         1 IFO       0.132500
     51 H17        -14.8190   -29.4970   -25.4100 ha         1 IFO       0.135000
     52 H18        -12.9910   -31.1230   -24.9900 ha         1 IFO       0.132500
     53 H19        -11.1040   -30.5180   -23.5260 ha         1 IFO       0.140000
     54 H20         -3.4170   -26.0850   -25.1370 h1         1 IFO       0.068700
     55 H21         -2.2450   -27.2430   -24.4970 h1         1 IFO       0.068700
     56 H22          0.0430   -26.6090   -24.3170 ha         1 IFO       0.146000
     57 H23          1.8230   -24.9030   -24.4950 ha         1 IFO       0.163000
     58 H24         -1.1750   -21.8420   -24.7920 ha         1 IFO       0.174000
     59 H2          -6.8740   -26.9710   -21.9360 hn         1 IFO       0.452800
@<TRIPOS>BOND
     1     1    34 1   
     2     1    36 1   
     3     2     3 1   
     4     2     5 2   
     5     2    13 1   
     6     3    12 2   
     7     3    37 1   
     8     4     9 2   
     9     4    13 1   
    10     4    14 1   
    11     5    11 1   
    12     5    38 1   
    13     6     8 1   
    14     6    11 1   
    15     6    22 1   
    16     6    39 1   
    17     7     8 1   
    18     7    40 1   
    19     7    41 1   
    20     7    42 1   
    21     8    10 1   
    22     8    34 1   
    23    10    43 1   
    24    10    44 1   
    25    10    45 1   
    26    11    59 1   
    27    13    46 1   
    28    14    15 1   
    29    14    47 1   
    30    14    48 1   
    31    15    16 1   
    32    16    17 ar  
    33    16    21 ar  
    34    17    18 ar  
    35    17    49 1   
    36    18    19 ar  
    37    18    50 1   
    38    19    20 ar  
    39    19    51 1   
    40    20    21 ar  
    41    20    52 1   
    42    21    53 1   
    43    22    23 2   
    44    22    24 1   
    45    24    25 1   
    46    25    26 1   
    47    25    54 1   
    48    25    55 1   
    49    26    27 ar  
    50    26    32 ar  
    51    27    28 ar  
    52    27    56 1   
    53    28    29 ar  
    54    28    57 1   
    55    29    30 1   
    56    29    31 ar  
    57    31    32 ar  
    58    31    58 1   
    59    32    33 1   
    60    34    35 2   
@<TRIPOS>SUBSTRUCTURE
     1 IFO         1 TEMP              0 ****  ****    0 ROOT
