@<TRIPOS>MOLECULE
IFO
   59    60     1     0     0
SMALL
No Charge or Current Charge


@<TRIPOS>ATOM
      1 O6          -3.9570   -22.3910   -19.5780 oh         1 IFO      -0.611800
      2 C6          -7.4720   -28.4430   -20.9600 ce         1 IFO      -0.274600
      3 C7          -7.5590   -29.6840   -20.1070 c          1 IFO       0.600100
      4 C8          -9.1670   -27.2880   -22.6030 c          1 IFO       0.599100
      5 C5          -6.3200   -27.7250   -20.9170 c2         1 IFO       0.148000
      6 C4          -4.9430   -25.6930   -21.6730 c3         1 IFO       0.193500
      7 C1          -6.1780   -23.4580   -21.2860 c3         1 IFO      -0.088100
      8 C2          -5.1170   -24.4510   -20.7160 c3         1 IFO      -0.033700
      9 O2          -8.5180   -26.3200   -22.9750 o          1 IFO      -0.599100
     10 C3          -5.5370   -24.9110   -19.2810 c3         1 IFO      -0.088100
     11 N1          -6.1560   -26.5700   -21.6690 nu         1 IFO      -0.796200
     12 O1          -6.6520   -30.0790   -19.3820 o          1 IFO      -0.561100
     13 N2          -8.6980   -28.2390   -21.7010 ns         1 IFO      -0.406100
     14 C9         -10.6020   -27.5470   -23.1150 c3         1 IFO       0.072600
     15 O3         -11.1810   -28.7470   -22.5390 os         1 IFO      -0.365100
     16 C10        -12.4550   -29.1730   -22.8530 ca         1 IFO       0.140100
     17 C11        -13.2900   -28.4770   -23.7550 ca         1 IFO      -0.166500
     18 C12        -14.5800   -28.9610   -24.0350 ca         1 IFO      -0.073000
     19 C13        -15.0410   -30.1370   -23.4180 ca         1 IFO      -0.142000
     20 C14        -14.2130   -30.8310   -22.5210 ca         1 IFO      -0.073000
     21 C15        -12.9230   -30.3480   -22.2410 ca         1 IFO      -0.166500
     22 C16         -4.5460   -25.2870   -23.1360 c          1 IFO       0.585100
     23 O4          -5.3370   -25.2140   -24.0700 o          1 IFO      -0.464000
     24 O5          -3.1940   -25.1060   -23.2720 os         1 IFO      -0.462100
     25 C17         -2.6860   -24.7340   -24.5620 c3         1 IFO       0.226900
     26 C18         -1.1910   -24.4990   -24.4160 ca         1 IFO      -0.168300
     27 C19         -0.2740   -25.4900   -24.8230 ca         1 IFO      -0.030000
     28 C20          1.1080   -25.2710   -24.6800 ca         1 IFO      -0.168000
     29 C21          1.5740   -24.0670   -24.1300 ca         1 IFO       0.218000
     30 F1           2.9020   -23.8610   -23.9940 f          1 IFO      -0.164000
     31 C22          0.6710   -23.0790   -23.7210 ca         1 IFO      -0.202000
     32 C23         -0.7070   -23.2960   -23.8630 ca         1 IFO       0.211000
     33 F2          -1.5690   -22.3350   -23.4600 f          1 IFO      -0.172000
     34 S1          -3.4280   -23.6070   -20.6310 s4         1 IFO       0.569500
     35 O7          -2.4980   -24.5310   -19.8790 o          1 IFO      -0.532000
     36 H1          -4.5070   -21.8000   -20.1300 ho         1 IFO       0.484000
     37 H3          -8.5180   -30.2470   -20.1670 h4         1 IFO      -0.013800
     38 H4          -5.4690   -28.0150   -20.2890 h4         1 IFO       0.216000
     39 H5          -4.0870   -26.2780   -21.3070 h1         1 IFO       0.110700
     40 H6          -6.4060   -22.6560   -20.5740 hc         1 IFO       0.052700
     41 H7          -5.8350   -22.9960   -22.2200 hc         1 IFO       0.052700
     42 H8          -7.1230   -23.9740   -21.4930 hc         1 IFO       0.052700
     43 H9          -4.8240   -25.6400   -18.8770 hc         1 IFO       0.052700
     44 H10         -5.5930   -24.0710   -18.5800 hc         1 IFO       0.052700
     45 H11         -6.5290   -25.3780   -19.2890 hc         1 IFO       0.052700
     46 H12         -9.4000   -28.9560   -21.5310 hn         1 IFO       0.338500
     47 H13        -10.5480   -27.6310   -24.2070 h1         1 IFO       0.065200
     48 H14        -11.2040   -26.6670   -22.8560 h1         1 IFO       0.065200
     49 H15        -12.9580   -27.5660   -24.2440 ha         1 IFO       0.122000
     50 H16        -15.2240   -28.4240   -24.7300 ha         1 IFO       0.114500
     51 H17        -16.0390   -30.5100   -23.6360 ha         1 IFO       0.117000
     52 H18        -14.5690   -31.7420   -22.0440 ha         1 IFO       0.114500
     53 H19        -12.2820   -30.8850   -21.5470 ha         1 IFO       0.122000
     54 H20         -3.1680   -23.8160   -24.9260 h1         1 IFO       0.068700
     55 H21         -2.8730   -25.5270   -25.3000 h1         1 IFO       0.068700
     56 H22         -0.6290   -26.4280   -25.2460 ha         1 IFO       0.128000
     57 H23          1.8170   -26.0320   -24.9930 ha         1 IFO       0.145000
     58 H24          1.0360   -22.1490   -23.2940 ha         1 IFO       0.156000
     59 H2          -6.9360   -26.3170   -22.2920 hn         1 IFO       0.508000
@<TRIPOS>BOND
     1     1    34 1   
     2     1    36 1   
     3     2     3 1   
     4     2     5 2   
     5     2    13 1   
     6     3    12 2   
     7     3    37 1   
     8     4     9 2   
     9     4    13 1   
    10     4    14 1   
    11     5    11 1   
    12     5    38 1   
    13     6     8 1   
    14     6    11 1   
    15     6    22 1   
    16     6    39 1   
    17     7     8 1   
    18     7    40 1   
    19     7    41 1   
    20     7    42 1   
    21     8    10 1   
    22     8    34 1   
    23    10    43 1   
    24    10    44 1   
    25    10    45 1   
    26    11    59 1   
    27    13    46 1   
    28    14    15 1   
    29    14    47 1   
    30    14    48 1   
    31    15    16 1   
    32    16    17 ar  
    33    16    21 ar  
    34    17    18 ar  
    35    17    49 1   
    36    18    19 ar  
    37    18    50 1   
    38    19    20 ar  
    39    19    51 1   
    40    20    21 ar  
    41    20    52 1   
    42    21    53 1   
    43    22    23 2   
    44    22    24 1   
    45    24    25 1   
    46    25    26 1   
    47    25    54 1   
    48    25    55 1   
    49    26    27 ar  
    50    26    32 ar  
    51    27    28 ar  
    52    27    56 1   
    53    28    29 ar  
    54    28    57 1   
    55    29    30 1   
    56    29    31 ar  
    57    31    32 ar  
    58    31    58 1   
    59    32    33 1   
    60    34    35 2   
@<TRIPOS>SUBSTRUCTURE
     1 IFO         1 TEMP              0 ****  ****    0 ROOT
