@<TRIPOS>MOLECULE
IFQ
   42    44     1     0     0
SMALL
abcg2


@<TRIPOS>ATOM
      1 C2           9.4350   -24.9780    -7.1930 cc         1 IFQ       0.737800
      2 C4          11.5530   -24.6620    -8.3450 c          1 IFQ       0.494500
      3 C6          11.3530   -21.2720    -9.5280 ca         1 IFQ       0.262900
      4 N1           8.9920   -23.7710    -7.4230 nd         1 IFQ      -0.760700
      5 N3          10.6530   -25.4250    -7.6300 ns         1 IFQ      -0.463400
      6 CAR          6.7530   -21.4050   -10.7470 ca         1 IFQ      -0.114000
      7 CAS          6.9900   -22.7560   -10.5450 ca         1 IFQ      -0.112000
      8 CAT          8.0270   -23.3910   -11.2140 ca         1 IFQ      -0.140000
      9 CAU          8.8130   -22.6550   -12.0900 ca         1 IFQ      -0.112000
     10 CAV          8.5630   -21.3040   -12.2960 ca         1 IFQ      -0.114000
     11 CAQ          7.5320   -20.6500   -11.6230 ca         1 IFQ      -0.047300
     12 CB           8.3240   -18.2540   -12.2640 c3         1 IFQ      -0.066400
     13 CA           9.3270   -17.8230   -11.1910 c3         1 IFQ      -0.034300
     14 C            8.8470   -16.7230   -10.1970 c          1 IFQ       0.738000
     15 O            7.7190   -16.2370   -10.3930 o          1 IFQ      -0.711500
     16 OXT          9.6850   -16.3730    -9.3480 o          1 IFQ      -0.711500
     17 N            9.9280   -18.9630   -10.5170 ns         1 IFQ      -0.452900
     18 OAW          8.4900   -19.1650    -8.7710 o          1 IFQ      -0.525100
     19 C7          10.0630   -20.9050    -9.1040 ca         1 IFQ       0.058500
     20 N8           9.3170   -21.7150    -8.3910 nb         1 IFQ      -0.070000
     21 C8A          9.7860   -22.9420    -8.1330 ca         1 IFQ       0.323000
     22 N2           8.6890   -25.8380    -6.5050 nv         1 IFQ      -1.069200
     23 O4          12.6230   -25.1040    -8.7020 o          1 IFQ      -0.513000
     24 C4A         11.0590   -23.3080    -8.6060 ca         1 IFQ       0.139500
     25 N5          11.8350   -22.4680    -9.2770 nb         1 IFQ      -0.581000
     26 H1          12.0020   -20.5860   -10.0590 h4         1 IFQ       0.039100
     27 H2          10.9370   -26.3760    -7.4240 hn         1 IFQ       0.314500
     28 H5           8.2260   -24.4420   -11.0500 ha         1 IFQ       0.094000
     29 H6           9.6280   -23.1330   -12.6200 ha         1 IFQ       0.101000
     30 H7           9.1930   -20.7630   -12.9910 ha         1 IFQ       0.113000
     31 H10          8.8720   -18.6960   -13.1010 hc         1 IFQ       0.026700
     32 H11          7.8770   -17.3440   -12.6650 hc         1 IFQ       0.026700
     33 H12         10.1580   -17.3530   -11.7290 h1         1 IFQ       0.029700
     34 H14         10.6080   -19.4650   -11.0650 hn         1 IFQ       0.274500
     35 H15          7.7850   -25.5420    -6.1780 hn         1 IFQ       0.507500
     36 H16          8.9800   -26.7790    -6.3010 hn         1 IFQ       0.507500
     37 CAL          9.4180   -19.5770    -9.4420 c          1 IFQ       0.506600
     38 H3           5.9490   -20.9200   -10.2040 ha         1 IFQ       0.113000
     39 CAP          7.1950   -19.1920   -11.8420 c3         1 IFQ      -0.029100
     40 H4           6.3720   -23.3120    -9.8510 ha         1 IFQ       0.101000
     41 H8           6.7090   -18.8000   -10.9470 hc         1 IFQ       0.059700
     42 H9           6.4300   -19.1530   -12.6260 hc         1 IFQ       0.059700
@<TRIPOS>BOND
     1     1     4 2   
     2     1     5 1   
     3     1    22 1   
     4     2     5 1   
     5     2    23 2   
     6     2    24 1   
     7     3    19 ar  
     8     3    25 ar  
     9     3    26 1   
    10     4    21 1   
    11     5    27 1   
    12     6     7 ar  
    13     6    11 ar  
    14     6    38 1   
    15     7     8 ar  
    16     7    40 1   
    17     8     9 ar  
    18     8    28 1   
    19     9    10 ar  
    20     9    29 1   
    21    10    11 ar  
    22    10    30 1   
    23    11    39 1   
    24    12    13 1   
    25    12    31 1   
    26    12    32 1   
    27    12    39 1   
    28    13    14 1   
    29    13    17 1   
    30    13    33 1   
    31    14    15 1   
    32    14    16 1   
    33    17    34 1   
    34    17    37 1   
    35    18    37 2   
    36    19    20 ar  
    37    19    37 1   
    38    20    21 ar  
    39    21    24 ar  
    40    22    35 1   
    41    22    36 1   
    42    24    25 ar  
    43    39    41 1   
    44    39    42 1   
@<TRIPOS>SUBSTRUCTURE
     1 IFQ         1 TEMP              0 ****  ****    0 ROOT
