@<TRIPOS>MOLECULE
IFQ
   42    44     1     0     0
SMALL
No Charge or Current Charge


@<TRIPOS>ATOM
      1 C2           9.6880   -25.0270    -6.6730 cc         1 IFQ       0.737800
      2 C4          11.4130   -24.9340    -8.3070 c          1 IFQ       0.494500
      3 C6          10.9560   -21.5970    -9.8410 ca         1 IFQ       0.262900
      4 N1           9.1470   -23.8540    -6.8510 nd         1 IFQ      -0.760700
      5 N3          10.7310   -25.5670    -7.3230 ns         1 IFQ      -0.463400
      6 CAR          6.8460   -21.2740   -10.9820 ca         1 IFQ      -0.114000
      7 CAS          7.1530   -22.6310   -10.7820 ca         1 IFQ      -0.112000
      8 CAT          8.1720   -23.2380   -11.5320 ca         1 IFQ      -0.140000
      9 CAU          8.8750   -22.4900   -12.4900 ca         1 IFQ      -0.112000
     10 CAV          8.5670   -21.1340   -12.6910 ca         1 IFQ      -0.114000
     11 CAQ          7.5600   -20.5060   -11.9260 ca         1 IFQ      -0.047300
     12 CB           8.4110   -18.0420   -12.2740 c3         1 IFQ      -0.066400
     13 CA           9.3010   -17.7630   -11.0220 c3         1 IFQ      -0.034300
     14 C            8.7010   -16.7560    -9.9710 c          1 IFQ       0.738000
     15 O            7.5310   -16.4050   -10.0680 o          1 IFQ      -0.711500
     16 OXT          9.4730   -16.2630    -9.1560 o          1 IFQ      -0.711500
     17 N            9.8390   -19.0080   -10.4110 ns         1 IFQ      -0.452900
     18 OAW          8.2680   -19.3450    -8.7840 o          1 IFQ      -0.525100
     19 C7           9.8550   -21.1070    -9.1100 ca         1 IFQ       0.058500
     20 N8           9.2810   -21.8560    -8.1390 nb         1 IFQ      -0.070000
     21 C8A          9.7700   -23.0890    -7.8700 ca         1 IFQ       0.323000
     22 N2           9.1380   -25.7710    -5.7420 nv         1 IFQ      -1.069200
     23 O4          12.3660   -25.4670    -8.8620 o          1 IFQ      -0.513000
     24 C4A         10.8870   -23.5600    -8.6250 ca         1 IFQ       0.139500
     25 N5          11.4840   -22.8170    -9.6040 nb         1 IFQ      -0.581000
     26 H1          11.4310   -21.0200   -10.6330 h4         1 IFQ       0.039100
     27 H2          11.0580   -26.4810    -7.0550 hn         1 IFQ       0.314500
     28 H5           8.4130   -24.2870   -11.3750 ha         1 IFQ       0.094000
     29 H6           9.6580   -22.9630   -13.0790 ha         1 IFQ       0.101000
     30 H7           9.1170   -20.5790   -13.4460 ha         1 IFQ       0.113000
     31 H10          9.0570   -18.3970   -13.0840 hc         1 IFQ       0.026700
     32 H11          8.0200   -17.0820   -12.6320 hc         1 IFQ       0.026700
     33 H12         10.1810   -17.2350   -11.4120 h1         1 IFQ       0.029700
     34 H14         10.6600   -19.4100   -10.8470 hn         1 IFQ       0.274500
     35 H15          8.2560   -25.3940    -5.4190 hn         1 IFQ       0.507500
     36 H16          9.1390   -26.7710    -5.9000 hn         1 IFQ       0.507500
     37 CAL          9.2450   -19.7540    -9.3980 c          1 IFQ       0.506600
     38 H3           6.0580   -20.8140   -10.3900 ha         1 IFQ       0.113000
     39 CAP          7.2120   -19.0220   -12.1080 c3         1 IFQ      -0.029100
     40 H4           6.6040   -23.2090   -10.0430 ha         1 IFQ       0.101000
     41 H8           6.5940   -18.6750   -11.2730 hc         1 IFQ       0.059700
     42 H9           6.5780   -18.9280   -12.9980 hc         1 IFQ       0.059700
@<TRIPOS>BOND
     1     1     4 2   
     2     1     5 1   
     3     1    22 1   
     4     2     5 1   
     5     2    23 2   
     6     2    24 1   
     7     3    19 ar  
     8     3    25 ar  
     9     3    26 1   
    10     4    21 1   
    11     5    27 1   
    12     6     7 ar  
    13     6    11 ar  
    14     6    38 1   
    15     7     8 ar  
    16     7    40 1   
    17     8     9 ar  
    18     8    28 1   
    19     9    10 ar  
    20     9    29 1   
    21    10    11 ar  
    22    10    30 1   
    23    11    39 1   
    24    12    13 1   
    25    12    31 1   
    26    12    32 1   
    27    12    39 1   
    28    13    14 1   
    29    13    17 1   
    30    13    33 1   
    31    14    15 1   
    32    14    16 1   
    33    17    34 1   
    34    17    37 1   
    35    18    37 2   
    36    19    20 ar  
    37    19    37 1   
    38    20    21 ar  
    39    21    24 ar  
    40    22    35 1   
    41    22    36 1   
    42    24    25 ar  
    43    39    41 1   
    44    39    42 1   
@<TRIPOS>SUBSTRUCTURE
     1 IFQ         1 TEMP              0 ****  ****    0 ROOT
