@<TRIPOS>MOLECULE
IFR
   49    52     1     0     0
SMALL
abcg2


@<TRIPOS>ATOM
      1 C01         26.2050    52.2090    -8.0790 cc         1 IFR       0.804900
      2 C07         26.7990    53.3330    -5.9910 c5         1 IFR       0.238300
      3 C10         24.5650    53.6110    -6.8900 c5         1 IFR       0.238300
      4 C11         25.6380    50.6390   -11.2150 c3         1 IFR      -0.107700
      5 C13         25.3170    49.1430   -11.0820 c3         1 IFR      -0.081700
      6 C17         23.9170    48.2110   -14.1920 cc         1 IFR      -0.033000
      7 C19         25.3520    46.5160   -15.0890 cc         1 IFR       0.572800
      8 C21         23.5010    47.2080   -16.2840 cd         1 IFR       0.367300
      9 C22         23.1020    48.1210   -15.3350 cc         1 IFR      -0.106300
     10 C23         26.5690    45.6870   -14.8950 c3         1 IFR      -0.143400
     11 C24         21.8890    48.9810   -15.4850 c3         1 IFR      -0.035800
     12 C25         22.7220    47.0290   -17.5490 c3         1 IFR      -0.143400
     13 N02         25.3490    51.9070    -9.0850 nc         1 IFR      -0.749000
     14 C03         26.1050    51.2300    -9.9310 cd         1 IFR       0.449800
     15 N04         27.3430    51.1290    -9.4500 na         1 IFR      -0.061700
     16 N05         27.4340    51.7570    -8.2560 nd         1 IFR      -0.617800
     17 N06         25.8320    52.9050    -6.9820 nh         1 IFR      -0.792300
     18 C08         25.9440    54.1000    -4.9890 c5         1 IFR      -0.096900
     19 C09         24.8500    54.7070    -5.8650 c5         1 IFR      -0.096900
     20 C12         28.5030    50.4800   -10.0020 c3         1 IFR       0.076900
     21 C14         24.9430    48.5530   -12.3950 cd         1 IFR       0.536300
     22 N15         25.6730    47.6150   -12.9650 nc         1 IFR      -0.594100
     23 N16         23.8630    48.9520   -13.0970 nd         1 IFR      -0.400300
     24 N18         25.0150    47.3960   -14.1140 na         1 IFR       0.071900
     25 N20         24.6080    46.4300   -16.1460 nd         1 IFR      -0.705000
     26 H27         27.3130    52.4810    -5.5400 h1         1 IFR       0.049200
     27 H26         27.5680    53.9790    -6.4340 h1         1 IFR       0.049200
     28 H32         24.2570    54.0160    -7.8550 h1         1 IFR       0.049200
     29 H33         23.7660    52.9460    -6.5460 h1         1 IFR       0.049200
     30 H34         24.7450    51.1790   -11.5270 hc         1 IFR       0.074700
     31 H35         26.3870    50.7880   -11.9960 hc         1 IFR       0.074700
     32 H40         26.1760    48.6000   -10.6870 hc         1 IFR       0.071700
     33 H39         24.4950    49.0110   -10.3740 hc         1 IFR       0.071700
     34 H42         26.7130    45.0470   -15.7610 hc         1 IFR       0.072033
     35 H43         27.4510    46.3140   -14.7630 hc         1 IFR       0.072033
     36 H41         26.4790    45.0650   -14.0030 hc         1 IFR       0.072033
     37 H45         21.9520    49.5970   -16.3830 hc         1 IFR       0.054700
     38 H44         20.9850    48.3760   -15.5730 hc         1 IFR       0.054700
     39 H46         21.7650    49.6450   -14.6320 hc         1 IFR       0.054700
     40 H47         23.1280    46.2100   -18.1360 hc         1 IFR       0.056700
     41 H49         21.6710    46.8220   -17.3440 hc         1 IFR       0.056700
     42 H48         22.7520    47.9350   -18.1580 hc         1 IFR       0.056700
     43 H29         25.5090    53.4120    -4.2620 hc         1 IFR       0.050950
     44 H28         26.5190    54.8450    -4.4400 hc         1 IFR       0.050950
     45 H31         23.9600    54.9930    -5.3060 hc         1 IFR       0.050950
     46 H30         25.2260    55.6000    -6.3690 hc         1 IFR       0.050950
     47 H36         28.8300    49.6690    -9.3530 h1         1 IFR       0.055367
     48 H37         28.2670    50.0690   -10.9790 h1         1 IFR       0.055367
     49 H38         29.3160    51.1970   -10.1120 h1         1 IFR       0.055367
@<TRIPOS>BOND
     1     1    13 1   
     2     1    16 2   
     3     1    17 1   
     4     2    17 1   
     5     2    18 1   
     6     2    26 1   
     7     2    27 1   
     8     3    17 1   
     9     3    19 1   
    10     3    28 1   
    11     3    29 1   
    12     4     5 1   
    13     4    14 1   
    14     4    30 1   
    15     4    31 1   
    16     5    21 1   
    17     5    32 1   
    18     5    33 1   
    19     6     9 1   
    20     6    23 2   
    21     6    24 1   
    22     7    10 1   
    23     7    24 1   
    24     7    25 2   
    25     8     9 2   
    26     8    12 1   
    27     8    25 1   
    28     9    11 1   
    29    10    34 1   
    30    10    35 1   
    31    10    36 1   
    32    11    37 1   
    33    11    38 1   
    34    11    39 1   
    35    12    40 1   
    36    12    41 1   
    37    12    42 1   
    38    13    14 2   
    39    14    15 1   
    40    15    16 1   
    41    15    20 1   
    42    18    19 1   
    43    18    43 1   
    44    18    44 1   
    45    19    45 1   
    46    19    46 1   
    47    20    47 1   
    48    20    48 1   
    49    20    49 1   
    50    21    22 2   
    51    21    23 1   
    52    22    24 1   
@<TRIPOS>SUBSTRUCTURE
     1 IFR         1 TEMP              0 ****  ****    0 ROOT
