@<TRIPOS>MOLECULE
IFR
   49    52     1     0     0
SMALL
No Charge or Current Charge


@<TRIPOS>ATOM
      1 C01         26.2070    52.0510    -7.9210 cc         1 IFR       0.804900
      2 C07         26.4100    53.0160    -5.7060 c5         1 IFR       0.238300
      3 C10         24.7930    53.9420    -7.3380 c5         1 IFR       0.238300
      4 C11         25.9210    50.5530   -11.1190 c3         1 IFR      -0.107700
      5 C13         25.2750    49.1460   -11.0560 c3         1 IFR      -0.081700
      6 C17         23.8160    48.1360   -14.1640 cc         1 IFR      -0.033000
      7 C19         25.5060    46.9580   -15.3850 cc         1 IFR       0.572800
      8 C21         23.3460    47.2260   -16.3460 cd         1 IFR       0.367300
      9 C22         22.9020    47.9330   -15.2330 cc         1 IFR      -0.106300
     10 C23         26.9140    46.4340   -15.4700 c3         1 IFR      -0.143400
     11 C24         21.4960    48.4820   -15.1030 c3         1 IFR      -0.035800
     12 C25         22.4780    46.9310   -17.5410 c3         1 IFR      -0.143400
     13 N02         25.4640    51.8270    -9.0290 nc         1 IFR      -0.749000
     14 C03         26.2760    51.0930    -9.7580 cd         1 IFR       0.449800
     15 N04         27.4600    50.8770    -9.0620 na         1 IFR      -0.061700
     16 N05         27.4020    51.5000    -7.8440 nd         1 IFR      -0.617800
     17 N06         25.5910    52.7560    -6.9160 nh         1 IFR      -0.792300
     18 C08         25.6110    54.1840    -5.0780 c5         1 IFR      -0.096900
     19 C09         25.2840    55.0270    -6.3400 c5         1 IFR      -0.096900
     20 C12         28.6320    50.0940    -9.4900 c3         1 IFR       0.076900
     21 C14         24.9390    48.5950   -12.4150 cd         1 IFR       0.536300
     22 N15         25.8330    47.9320   -13.1440 nc         1 IFR      -0.594100
     23 N16         23.6880    48.7430   -13.0020 nd         1 IFR      -0.400300
     24 N18         25.0750    47.6600   -14.2420 na         1 IFR       0.071900
     25 N20         24.6630    46.7410   -16.4150 nd         1 IFR      -0.705000
     26 H27         26.4650    52.1460    -5.0370 h1         1 IFR       0.049200
     27 H26         27.4330    53.3320    -5.9570 h1         1 IFR       0.049200
     28 H32         24.9710    54.2580    -8.3760 h1         1 IFR       0.049200
     29 H33         23.7180    53.7470    -7.2180 h1         1 IFR       0.049200
     30 H34         25.2310    51.2430   -11.6190 hc         1 IFR       0.074700
     31 H35         26.8200    50.5110   -11.7460 hc         1 IFR       0.074700
     32 H40         25.9520    48.4560   -10.5410 hc         1 IFR       0.071700
     33 H39         24.3640    49.1960   -10.4480 hc         1 IFR       0.071700
     34 H42         27.0900    45.9160   -16.4190 hc         1 IFR       0.072033
     35 H43         27.6340    47.2560   -15.3930 hc         1 IFR       0.072033
     36 H41         27.1100    45.7280   -14.6560 hc         1 IFR       0.072033
     37 H45         21.1710    48.9650   -16.0320 hc         1 IFR       0.054700
     38 H44         20.7860    47.6780   -14.8770 hc         1 IFR       0.054700
     39 H46         21.4130    49.2320   -14.3080 hc         1 IFR       0.054700
     40 H47         22.9760    46.2570   -18.2490 hc         1 IFR       0.056700
     41 H49         21.5410    46.4520   -17.2350 hc         1 IFR       0.056700
     42 H48         22.2290    47.8530   -18.0780 hc         1 IFR       0.056700
     43 H29         24.7000    53.8270    -4.5840 hc         1 IFR       0.050950
     44 H28         26.1960    54.7380    -4.3350 hc         1 IFR       0.050950
     45 H31         24.5260    55.7960    -6.1550 hc         1 IFR       0.050950
     46 H30         26.1790    55.5340    -6.7190 hc         1 IFR       0.050950
     47 H36         29.3810    50.0670    -8.6890 h1         1 IFR       0.055367
     48 H37         28.3230    49.0680    -9.7280 h1         1 IFR       0.055367
     49 H38         29.0760    50.5540   -10.3820 h1         1 IFR       0.055367
@<TRIPOS>BOND
     1     1    13 1   
     2     1    16 2   
     3     1    17 1   
     4     2    17 1   
     5     2    18 1   
     6     2    26 1   
     7     2    27 1   
     8     3    17 1   
     9     3    19 1   
    10     3    28 1   
    11     3    29 1   
    12     4     5 1   
    13     4    14 1   
    14     4    30 1   
    15     4    31 1   
    16     5    21 1   
    17     5    32 1   
    18     5    33 1   
    19     6     9 1   
    20     6    23 2   
    21     6    24 1   
    22     7    10 1   
    23     7    24 1   
    24     7    25 2   
    25     8     9 2   
    26     8    12 1   
    27     8    25 1   
    28     9    11 1   
    29    10    34 1   
    30    10    35 1   
    31    10    36 1   
    32    11    37 1   
    33    11    38 1   
    34    11    39 1   
    35    12    40 1   
    36    12    41 1   
    37    12    42 1   
    38    13    14 2   
    39    14    15 1   
    40    15    16 1   
    41    15    20 1   
    42    18    19 1   
    43    18    43 1   
    44    18    44 1   
    45    19    45 1   
    46    19    46 1   
    47    20    47 1   
    48    20    48 1   
    49    20    49 1   
    50    21    22 2   
    51    21    23 1   
    52    22    24 1   
@<TRIPOS>SUBSTRUCTURE
     1 IFR         1 TEMP              0 ****  ****    0 ROOT
