@<TRIPOS>MOLECULE
IFS
   39    39     1     0     0
SMALL
No Charge or Current Charge


@<TRIPOS>ATOM
      1 C1           0.8000    -0.3760     0.1350 ca         1 IFS      -0.287500
      2 O1          -0.7450     1.1640    -1.7510 o          1 IFS      -0.598000
      3 P1          -0.6710     0.6030    -0.3740 py         1 IFS       1.275300
      4 S1           2.6280     1.8080    -1.9100 sh         1 IFS      -0.431800
      5 C2           1.9590    -0.5750    -0.6640 ca         1 IFS       0.006700
      6 C3           3.0190    -1.3540    -0.1560 ca         1 IFS      -0.112000
      7 C4           2.9440    -1.9330     1.1200 ca         1 IFS      -0.073000
      8 C5           1.8030    -1.7360     1.9080 ca         1 IFS      -0.123000
      9 C6           0.7400    -0.9620     1.4200 ca         1 IFS      -0.047000
     10 C7           2.1230     0.0270    -2.0590 c3         1 IFS       0.112900
     11 C101        -2.6920     3.0630     0.2780 c3         1 IFS      -0.111850
     12 C102        -3.7720    -1.7900    -0.2400 c3         1 IFS      -0.111850
     13 O21         -1.8740    -0.3930     0.0500 os         1 IFS      -0.619400
     14 O22         -0.7780     1.6780     0.8350 os         1 IFS      -0.619400
     15 C81         -2.0250     2.1690     1.3450 c3         1 IFS       0.240300
     16 C82         -2.4670    -1.2960    -0.8870 c3         1 IFS       0.240300
     17 C91         -1.6900     2.9460     2.6300 c3         1 IFS      -0.111850
     18 C92         -1.4810    -2.4480    -1.1720 c3         1 IFS      -0.111850
     19 HS1          2.6830     2.0570    -3.2410 hs         1 IFS       0.201800
     20 H3           3.9140    -1.5110    -0.7540 ha         1 IFS       0.118000
     21 H4           3.7700    -2.5320     1.4970 ha         1 IFS       0.115000
     22 H5           1.7410    -2.1820     2.8980 ha         1 IFS       0.115000
     23 H6          -0.1390    -0.8170     2.0480 ha         1 IFS       0.123000
     24 H7           1.2000    -0.0610    -2.6430 h1         1 IFS       0.075200
     25 H7A          2.9070    -0.5100    -2.6090 h1         1 IFS       0.075200
     26 H101        -1.9980     3.8350    -0.0750 hc         1 IFS       0.048117
     27 H10A        -3.0250     2.4700    -0.5810 hc         1 IFS       0.048117
     28 H10B        -3.5740     3.5620     0.6970 hc         1 IFS       0.048117
     29 H102        -4.4420    -0.9460    -0.0380 hc         1 IFS       0.048117
     30 H10C        -4.2920    -2.4860    -0.9080 hc         1 IFS       0.048117
     31 H10D        -3.5670    -2.3060     0.7060 hc         1 IFS       0.048117
     32 H81         -2.7030     1.3460     1.6100 h1         1 IFS       0.041200
     33 H82         -2.7160    -0.7830    -1.8260 h1         1 IFS       0.041200
     34 H91         -2.6030     3.3480     3.0840 hc         1 IFS       0.048117
     35 H91A        -1.2090     2.2860     3.3620 hc         1 IFS       0.048117
     36 H91B        -1.0130     3.7810     2.4170 hc         1 IFS       0.048117
     37 H92         -1.9680    -3.2270    -1.7700 hc         1 IFS       0.048117
     38 H92A        -0.6110    -2.0940    -1.7370 hc         1 IFS       0.048117
     39 H92B        -1.1310    -2.9040    -0.2370 hc         1 IFS       0.048117
@<TRIPOS>BOND
     1     1     3 1   
     2     1     5 ar  
     3     1     9 ar  
     4     2     3 2   
     5     3    13 1   
     6     3    14 1   
     7     4    10 1   
     8     4    19 1   
     9     5     6 ar  
    10     5    10 1   
    11     6     7 ar  
    12     6    20 1   
    13     7     8 ar  
    14     7    21 1   
    15     8     9 ar  
    16     8    22 1   
    17     9    23 1   
    18    10    24 1   
    19    10    25 1   
    20    11    15 1   
    21    11    26 1   
    22    11    27 1   
    23    11    28 1   
    24    12    16 1   
    25    12    29 1   
    26    12    30 1   
    27    12    31 1   
    28    13    16 1   
    29    14    15 1   
    30    15    17 1   
    31    15    32 1   
    32    16    18 1   
    33    16    33 1   
    34    17    34 1   
    35    17    35 1   
    36    17    36 1   
    37    18    37 1   
    38    18    38 1   
    39    18    39 1   
@<TRIPOS>SUBSTRUCTURE
     1 IFS         1 TEMP              0 ****  ****    0 ROOT
