@<TRIPOS>MOLECULE
IFS
   39    39     1     0     0
SMALL
abcg2


@<TRIPOS>ATOM
      1 C1           0.8140    -0.7020     0.0170 ca         1 IFS      -0.287500
      2 O1          -1.1730     0.0540    -1.7890 o          1 IFS      -0.598000
      3 P1          -0.8270    -0.0520    -0.3470 py         1 IFS       1.275300
      4 S1           2.3840     2.5960    -0.1730 sh         1 IFS      -0.431800
      5 C2           1.9670    -0.0710    -0.4750 ca         1 IFS       0.006700
      6 C3           3.2090    -0.6320    -0.1900 ca         1 IFS      -0.112000
      7 C4           3.3210    -1.7980     0.5500 ca         1 IFS      -0.073000
      8 C5           2.1800    -2.4210     1.0320 ca         1 IFS      -0.123000
      9 C6           0.9360    -1.8720     0.7670 ca         1 IFS      -0.047000
     10 C7           1.9450     1.2020    -1.2750 c3         1 IFS       0.112900
     11 C101        -1.5330     3.2680    -0.7440 c3         1 IFS      -0.111850
     12 C102        -3.9640    -1.9360     0.9310 c3         1 IFS      -0.111850
     13 O21         -1.8460    -0.9580     0.4940 os         1 IFS      -0.619400
     14 O22         -0.7810     1.3140     0.4730 os         1 IFS      -0.619400
     15 C81         -1.8320     2.3040     0.3880 c3         1 IFS       0.240300
     16 C82         -2.8890    -1.7550    -0.1190 c3         1 IFS       0.240300
     17 C91         -1.8950     2.9880     1.7370 c3         1 IFS      -0.111850
     18 C92         -2.3260    -3.0710    -0.6150 c3         1 IFS      -0.111850
     19 HS1          2.4980     3.5280    -1.1270 hs         1 IFS       0.201800
     20 H3           4.1030    -0.1460    -0.5620 ha         1 IFS       0.118000
     21 H4           4.2990    -2.2180     0.7480 ha         1 IFS       0.115000
     22 H5           2.2550    -3.3300     1.6130 ha         1 IFS       0.115000
     23 H6           0.0560    -2.3630     1.1570 ha         1 IFS       0.123000
     24 H7           0.9830     1.3930    -1.7410 h1         1 IFS       0.075200
     25 H7A          2.6910     1.1460    -2.0670 h1         1 IFS       0.075200
     26 H101        -0.5560     3.7320    -0.6030 hc         1 IFS       0.048117
     27 H10A        -1.5380     2.7610    -1.7080 hc         1 IFS       0.048117
     28 H10B        -2.2880     4.0540    -0.7730 hc         1 IFS       0.048117
     29 H102        -4.3480    -0.9760     1.2760 hc         1 IFS       0.048117
     30 H10C        -4.7970    -2.4980     0.5100 hc         1 IFS       0.048117
     31 H10D        -3.5870    -2.4900     1.7930 hc         1 IFS       0.048117
     32 H81         -2.7890     1.8050     0.1990 h1         1 IFS       0.041200
     33 H82         -3.3020    -1.1980    -0.9630 h1         1 IFS       0.041200
     34 H91         -2.6830     3.7400     1.7360 hc         1 IFS       0.048117
     35 H91A        -2.1110     2.2760     2.5340 hc         1 IFS       0.048117
     36 H91B        -0.9510     3.4870     1.9640 hc         1 IFS       0.048117
     37 H92         -3.1240    -3.6650    -1.0630 hc         1 IFS       0.048117
     38 H92A        -1.5620    -2.9210    -1.3780 hc         1 IFS       0.048117
     39 H92B        -1.8950    -3.6520     0.2020 hc         1 IFS       0.048117
@<TRIPOS>BOND
     1     1     3 1   
     2     1     5 ar  
     3     1     9 ar  
     4     2     3 2   
     5     3    13 1   
     6     3    14 1   
     7     4    10 1   
     8     4    19 1   
     9     5     6 ar  
    10     5    10 1   
    11     6     7 ar  
    12     6    20 1   
    13     7     8 ar  
    14     7    21 1   
    15     8     9 ar  
    16     8    22 1   
    17     9    23 1   
    18    10    24 1   
    19    10    25 1   
    20    11    15 1   
    21    11    26 1   
    22    11    27 1   
    23    11    28 1   
    24    12    16 1   
    25    12    29 1   
    26    12    30 1   
    27    12    31 1   
    28    13    16 1   
    29    14    15 1   
    30    15    17 1   
    31    15    32 1   
    32    16    18 1   
    33    16    33 1   
    34    17    34 1   
    35    17    35 1   
    36    17    36 1   
    37    18    37 1   
    38    18    38 1   
    39    18    39 1   
@<TRIPOS>SUBSTRUCTURE
     1 IFS         1 TEMP              0 ****  ****    0 ROOT
