@<TRIPOS>MOLECULE
IFT
   48    51     1     0     0
SMALL
bcc


@<TRIPOS>ATOM
      1 C10         -7.6410   -12.9080    14.5230 ca         1 IFT      -0.109500
      2 C13         -7.5790   -15.4430    12.4000 c          1 IFT       0.675100
      3 C20        -12.5350   -15.3930     8.8740 c6         1 IFT      -0.118700
      4 C21        -12.3090   -14.0990     8.0830 c6         1 IFT      -0.074400
      5 C22        -11.8330   -12.9550     8.9800 c6         1 IFT      -0.075400
      6 C24        -10.4560   -14.6490    10.1150 cc         1 IFT      -0.391900
      7 C26         -7.0440   -14.4720    16.7200 ca         1 IFT      -0.122500
      8 C02         -8.2720   -12.7340    20.4320 cc         1 IFT       0.416800
      9 N03         -7.5740   -13.2250    19.3900 na         1 IFT      -0.294900
     10 C04         -8.2370   -12.8950    18.2310 cc         1 IFT      -0.176600
     11 C05         -9.3510   -12.2050    18.6510 cd         1 IFT       0.344600
     12 C06        -10.4620   -11.6300    17.8410 c3         1 IFT      -0.114400
     13 N07         -9.3530   -12.1180    20.0150 nd         1 IFT      -0.681000
     14 C08         -7.7760   -13.2960    16.9090 ca         1 IFT       0.011000
     15 C09         -8.0560   -12.5140    15.7850 ca         1 IFT      -0.122500
     16 C11         -6.9160   -14.0810    14.3400 ca         1 IFT      -0.090300
     17 C12         -6.5050   -14.5280    12.9610 c3         1 IFT      -0.111100
     18 O14         -7.6510   -16.6160    12.6940 o          1 IFT      -0.527100
     19 N15         -8.4770   -14.8140    11.5850 ns         1 IFT      -0.550400
     20 C16         -9.5920   -15.3670    10.9890 cc         1 IFT       0.470200
     21 N17         -9.9830   -16.6020    11.1580 nd         1 IFT      -0.363300
     22 O18        -11.1170   -16.7310    10.3920 os         1 IFT      -0.111100
     23 C19        -11.3790   -15.5760     9.7830 cd         1 IFT       0.313000
     24 C23        -10.4660   -13.2470     9.6100 c6         1 IFT       0.009900
     25 C25         -6.6200   -14.8540    15.4580 ca         1 IFT      -0.109500
     26 H1          -7.8730   -12.2780    13.6710 ha         1 IFT       0.133000
     27 H2         -13.4600   -15.3320     9.4550 hc         1 IFT       0.070700
     28 H3         -12.6430   -16.2470     8.2010 hc         1 IFT       0.070700
     29 H4         -11.5660   -14.2800     7.3020 hc         1 IFT       0.049200
     30 H5         -13.2350   -13.8190     7.5790 hc         1 IFT       0.049200
     31 H6         -11.7780   -12.0310     8.4040 hc         1 IFT       0.046200
     32 H7         -12.5690   -12.7890     9.7720 hc         1 IFT       0.046200
     33 H8          -6.8130   -15.1160    17.5610 ha         1 IFT       0.134000
     34 H9          -8.5500   -12.3900    22.5020 hc         1 IFT       0.055700
     35 H10         -7.8020   -13.9450    22.1350 hc         1 IFT       0.055700
     36 H11         -6.8540   -12.4680    22.0170 hc         1 IFT       0.055700
     37 H12         -6.6910   -13.7070    19.4530 hn         1 IFT       0.300700
     38 H13        -11.3720   -11.5780    18.4380 hc         1 IFT       0.045700
     39 H14        -10.2410   -10.6160    17.5000 hc         1 IFT       0.045700
     40 H15        -10.6740   -12.2290    16.9560 hc         1 IFT       0.045700
     41 H17         -8.5830   -11.5750    15.8930 ha         1 IFT       0.134000
     42 H18         -5.5740   -15.0940    13.0050 hc         1 IFT       0.070700
     43 H19         -6.3340   -13.6650    12.3160 hc         1 IFT       0.070700
     44 H20         -8.3170   -13.8390    11.3810 hn         1 IFT       0.324500
     45 H21         -9.6720   -13.1040     8.8700 hc         1 IFT       0.044200
     46 H22        -10.2670   -12.5360    10.4150 hc         1 IFT       0.044200
     47 H23         -6.0550   -15.7710    15.3440 ha         1 IFT       0.133000
     48 C01         -7.8440   -12.8940    21.8460 c3         1 IFT      -0.124400
@<TRIPOS>BOND
     1     1    15 ar  
     2     1    16 ar  
     3     1    26 1   
     4     2    17 1   
     5     2    18 2   
     6     2    19 1   
     7     3     4 1   
     8     3    23 1   
     9     3    27 1   
    10     3    28 1   
    11     4     5 1   
    12     4    29 1   
    13     4    30 1   
    14     5    24 1   
    15     5    31 1   
    16     5    32 1   
    17     6    20 1   
    18     6    23 2   
    19     6    24 1   
    20     7    14 ar  
    21     7    25 ar  
    22     7    33 1   
    23     8     9 1   
    24     8    13 2   
    25     8    48 1   
    26     9    10 1   
    27     9    37 1   
    28    10    11 2   
    29    10    14 1   
    30    11    12 1   
    31    11    13 1   
    32    12    38 1   
    33    12    39 1   
    34    12    40 1   
    35    14    15 ar  
    36    15    41 1   
    37    16    17 1   
    38    16    25 ar  
    39    17    42 1   
    40    17    43 1   
    41    19    20 1   
    42    19    44 1   
    43    20    21 2   
    44    21    22 1   
    45    22    23 1   
    46    24    45 1   
    47    24    46 1   
    48    25    47 1   
    49    34    48 1   
    50    35    48 1   
    51    36    48 1   
@<TRIPOS>SUBSTRUCTURE
     1 IFT         1 TEMP              0 ****  ****    0 ROOT
