@<TRIPOS>MOLECULE
IFT
   48    51     1     0     0
SMALL
No Charge or Current Charge


@<TRIPOS>ATOM
      1 C10         -7.7760   -12.9790    14.5520 ca         1 IFT      -0.091500
      2 C13         -7.7150   -15.5690    12.4070 c          1 IFT       0.608100
      3 C20        -12.5330   -15.2560     8.6190 c6         1 IFT      -0.118700
      4 C21        -12.2470   -13.8700     7.9700 c6         1 IFT      -0.074400
      5 C22        -11.7250   -12.8350     9.0130 c6         1 IFT      -0.075400
      6 C24        -10.4930   -14.7530    10.0340 cc         1 IFT      -0.261300
      7 C26         -7.0000   -14.4730    16.7940 ca         1 IFT      -0.104500
      8 C02         -8.1340   -12.5180    20.5100 cc         1 IFT       0.416800
      9 N03         -7.3690   -12.9980    19.4770 na         1 IFT      -0.294500
     10 C04         -8.1140   -12.8680    18.3290 cc         1 IFT      -0.162000
     11 C05         -9.3390   -12.3730    18.7170 cd         1 IFT       0.279300
     12 C06        -10.5790   -12.1220    17.9010 c3         1 IFT      -0.114400
     13 N07         -9.3300   -12.1440    20.0800 nd         1 IFT      -0.681000
     14 C08         -7.7600   -13.3010    16.9750 ca         1 IFT       0.011000
     15 C09         -8.1350   -12.5520    15.8420 ca         1 IFT      -0.104500
     16 C11         -7.0290   -14.1580    14.3750 ca         1 IFT      -0.090300
     17 C12         -6.6460   -14.6280    12.9740 c3         1 IFT      -0.111100
     18 O14         -7.7730   -16.7470    12.7310 o          1 IFT      -0.527100
     19 N15         -8.5970   -14.9700    11.5340 ns         1 IFT      -0.483400
     20 C16         -9.6730   -15.5200    10.8750 cc         1 IFT       0.404900
     21 N17        -10.0470   -16.7890    10.9490 nd         1 IFT      -0.363300
     22 O18        -11.2060   -16.8640    10.0840 os         1 IFT      -0.066700
     23 C19        -11.4160   -15.6160     9.5660 cd         1 IFT       0.203300
     24 C23        -10.3960   -13.2890     9.6850 c6         1 IFT       0.009900
     25 C25         -6.6410   -14.9020    15.5050 ca         1 IFT      -0.091500
     26 H1          -8.0770   -12.3860    13.6900 ha         1 IFT       0.115000
     27 H2         -13.4820   -15.2180     9.1710 hc         1 IFT       0.070700
     28 H3         -12.6490   -16.0230     7.8420 hc         1 IFT       0.070700
     29 H4         -11.4980   -13.9860     7.1740 hc         1 IFT       0.049200
     30 H5         -13.1570   -13.4910     7.4850 hc         1 IFT       0.049200
     31 H6         -11.5810   -11.8570     8.5330 hc         1 IFT       0.046200
     32 H7         -12.4910   -12.6870     9.7860 hc         1 IFT       0.046200
     33 H8          -6.6960   -15.0630    17.6550 ha         1 IFT       0.116000
     34 H9          -8.4230   -11.9740    22.5730 hc         1 IFT       0.055700
     35 H10         -7.4940   -13.4650    22.3270 hc         1 IFT       0.055700
     36 H11         -6.7410   -11.8870    22.0170 hc         1 IFT       0.055700
     37 H12         -6.4260   -13.3570    19.5620 hn         1 IFT       0.351000
     38 H13        -11.4800   -12.1640    18.5250 hc         1 IFT       0.045700
     39 H14        -10.5450   -11.1320    17.4320 hc         1 IFT       0.045700
     40 H15        -10.6930   -12.8730    17.1110 hc         1 IFT       0.045700
     41 H17         -8.6900   -11.6250    15.9550 ha         1 IFT       0.116000
     42 H18         -5.6920   -15.1660    13.0160 hc         1 IFT       0.070700
     43 H19         -6.5370   -13.7520    12.3230 hc         1 IFT       0.070700
     44 H20         -8.4260   -13.9880    11.3740 hn         1 IFT       0.324500
     45 H21         -9.5590   -13.1200     8.9930 hc         1 IFT       0.044200
     46 H22        -10.2000   -12.6730    10.5730 hc         1 IFT       0.044200
     47 H23         -6.0640   -15.8160    15.3860 ha         1 IFT       0.115000
     48 C01         -7.6740   -12.4570    21.9350 c3         1 IFT      -0.124400
@<TRIPOS>BOND
     1     1    15 ar  
     2     1    16 ar  
     3     1    26 1   
     4     2    17 1   
     5     2    18 2   
     6     2    19 1   
     7     3     4 1   
     8     3    23 1   
     9     3    27 1   
    10     3    28 1   
    11     4     5 1   
    12     4    29 1   
    13     4    30 1   
    14     5    24 1   
    15     5    31 1   
    16     5    32 1   
    17     6    20 1   
    18     6    23 2   
    19     6    24 1   
    20     7    14 ar  
    21     7    25 ar  
    22     7    33 1   
    23     8     9 1   
    24     8    13 2   
    25     8    48 1   
    26     9    10 1   
    27     9    37 1   
    28    10    11 2   
    29    10    14 1   
    30    11    12 1   
    31    11    13 1   
    32    12    38 1   
    33    12    39 1   
    34    12    40 1   
    35    14    15 ar  
    36    15    41 1   
    37    16    17 1   
    38    16    25 ar  
    39    17    42 1   
    40    17    43 1   
    41    19    20 1   
    42    19    44 1   
    43    20    21 2   
    44    21    22 1   
    45    22    23 1   
    46    24    45 1   
    47    24    46 1   
    48    25    47 1   
    49    34    48 1   
    50    35    48 1   
    51    36    48 1   
@<TRIPOS>SUBSTRUCTURE
     1 IFT         1 TEMP              0 ****  ****    0 ROOT
