@<TRIPOS>MOLECULE
IFV
   41    44     1     0     0
SMALL
bcc


@<TRIPOS>ATOM
      1 C01         23.0590    47.1950   -16.4250 cc         1 IFV      -0.034600
      2 C02         23.9850    46.2000   -16.0330 cc         1 IFV      -0.093000
      3 C04         22.8460    48.3000   -15.6600 cd         1 IFV      -0.027300
      4 C07         24.4670    47.4800   -14.0810 cd         1 IFV      -0.010300
      5 C13         26.4200    51.0210   -10.1670 cc         1 IFV       0.454800
      6 C15         26.3200    52.1030    -8.3730 cd         1 IFV       0.809900
      7 C19         26.6430    53.4500    -6.3540 c5         1 IFV       0.241300
      8 C20         25.6640    53.8440    -5.2550 c5         1 IFV      -0.096900
      9 C21         24.3430    53.9870    -6.0070 c5         1 IFV      -0.096900
     10 C22         24.3920    52.8560    -7.0330 c5         1 IFV       0.241300
     11 C03         24.6850    46.3380   -14.8700 cd         1 IFV      -0.103000
     12 CL05        22.1870    47.0060   -17.8980 cl         1 IFV      -0.070400
     13 N06         23.5550    48.4080   -14.5120 na         1 IFV       0.194000
     14 N08         24.9790    47.8900   -12.9310 nc         1 IFV      -0.400300
     15 C09         24.3550    49.0580   -12.7080 cc         1 IFV       0.531300
     16 N10         23.4840    49.4170   -13.6370 nd         1 IFV      -0.589100
     17 C12         26.1090    50.2170   -11.3830 c3         1 IFV      -0.104700
     18 N14         25.5500    51.4270    -9.2620 nd         1 IFV      -0.758000
     19 N16         27.6030    52.1360    -8.6790 nc         1 IFV      -0.615800
     20 N17         27.6440    51.4290    -9.8330 na         1 IFV      -0.036400
     21 N18         25.8150    52.6800    -7.2600 nh         1 IFV      -0.796300
     22 H24         24.1320    45.3330   -16.6610 ha         1 IFV       0.160000
     23 H26         22.1570    49.0960   -15.8970 h4         1 IFV       0.194000
     24 H27         24.0340    50.8090   -11.5650 hc         1 IFV       0.082200
     25 H28         24.2860    49.3550   -10.6170 hc         1 IFV       0.082200
     26 H32         27.4810    52.8570    -5.9790 h1         1 IFV       0.048700
     27 H31         27.0650    54.3340    -6.8470 h1         1 IFV       0.048700
     28 H34         25.5910    53.0470    -4.5110 hc         1 IFV       0.050950
     29 H33         25.9650    54.7540    -4.7390 hc         1 IFV       0.050950
     30 H36         23.4690    53.9210    -5.3600 hc         1 IFV       0.050950
     31 H35         24.3070    54.9520    -6.5180 hc         1 IFV       0.050950
     32 H37         23.8640    53.1120    -7.9540 h1         1 IFV       0.048700
     33 H38         23.9350    51.9410    -6.6400 h1         1 IFV       0.048700
     34 H40         29.6160    50.7600    -9.8630 h1         1 IFV       0.054367
     35 H39         28.7440    50.6160   -11.3930 h1         1 IFV       0.054367
     36 H41         29.2970    52.2030   -10.8440 h1         1 IFV       0.054367
     37 H25         25.3990    45.5930   -14.5480 ha         1 IFV       0.170000
     38 H30         26.6850    49.2890   -11.3600 hc         1 IFV       0.065700
     39 H29         26.4410    50.7580   -12.2730 hc         1 IFV       0.065700
     40 C11         24.6220    49.8940   -11.5050 c3         1 IFV      -0.069700
     41 C23         28.8950    51.2450   -10.5190 c3         1 IFV       0.049600
@<TRIPOS>BOND
     1     1     2 1   
     2     1     3 2   
     3     1    12 1   
     4     2    11 2   
     5     2    22 1   
     6     3    13 1   
     7     3    23 1   
     8     4    11 1   
     9     4    13 1   
    10     4    14 2   
    11     5    17 1   
    12     5    18 2   
    13     5    20 1   
    14     6    18 1   
    15     6    19 2   
    16     6    21 1   
    17     7     8 1   
    18     7    21 1   
    19     7    26 1   
    20     7    27 1   
    21     8     9 1   
    22     8    28 1   
    23     8    29 1   
    24     9    10 1   
    25     9    30 1   
    26     9    31 1   
    27    10    21 1   
    28    10    32 1   
    29    10    33 1   
    30    11    37 1   
    31    13    16 1   
    32    14    15 1   
    33    15    16 2   
    34    15    40 1   
    35    17    38 1   
    36    17    39 1   
    37    17    40 1   
    38    19    20 1   
    39    20    41 1   
    40    24    40 1   
    41    25    40 1   
    42    34    41 1   
    43    35    41 1   
    44    36    41 1   
@<TRIPOS>SUBSTRUCTURE
     1 IFV         1 TEMP              0 ****  ****    0 ROOT
