@<TRIPOS>MOLECULE
IFV
   41    44     1     0     0
SMALL
No Charge or Current Charge


@<TRIPOS>ATOM
      1 C01         23.4250    47.1100   -16.5390 cc         1 IFV       0.057000
      2 C02         23.6380    45.9180   -15.7500 cc         1 IFV      -0.075000
      3 C04         23.5270    48.3940   -16.0110 cd         1 IFV      -0.060000
      4 C07         24.0590    47.3230   -13.8930 cd         1 IFV      -0.061000
      5 C13         26.4140    51.1600   -10.2350 cc         1 IFV       0.454800
      6 C15         26.3740    52.2730    -8.4630 cd         1 IFV       0.809900
      7 C19         26.6540    53.6330    -6.3670 c5         1 IFV       0.241300
      8 C20         25.7240    53.6500    -5.1270 c5         1 IFV      -0.096900
      9 C21         24.3250    53.7430    -5.7920 c5         1 IFV      -0.096900
     10 C22         24.4390    52.6650    -6.9010 c5         1 IFV       0.241300
     11 C03         23.9600    46.0000   -14.4110 cd         1 IFV      -0.085000
     12 Cl05        23.0250    46.8930   -18.2150 cl         1 IFV      -0.162000
     13 N06         23.8510    48.4420   -14.6560 na         1 IFV       0.295400
     14 N08         24.3470    47.7060   -12.6720 nc         1 IFV      -0.400300
     15 C09         24.2940    49.0780   -12.7780 cc         1 IFV       0.531300
     16 N10         23.9980    49.5980   -13.9650 nd         1 IFV      -0.589100
     17 C12         26.0850    50.2900   -11.4230 c3         1 IFV      -0.104700
     18 N14         25.5850    51.5000    -9.2660 nd         1 IFV      -0.758000
     19 N16         27.6250    52.4520    -8.8310 nc         1 IFV      -0.615800
     20 N17         27.6500    51.7270    -9.9810 na         1 IFV      -0.065700
     21 N18         25.8510    52.8290    -7.3160 nh         1 IFV      -0.796300
     22 H24         23.5410    44.9490   -16.2310 ha         1 IFV       0.142000
     23 H26         23.3810    49.3230   -16.5440 h4         1 IFV       0.176000
     24 H27         23.9930    50.8510   -11.6350 hc         1 IFV       0.082200
     25 H28         24.2430    49.4050   -10.6720 hc         1 IFV       0.082200
     26 H32         27.6280    53.1780    -6.1390 h1         1 IFV       0.048700
     27 H31         26.8250    54.6460    -6.7580 h1         1 IFV       0.048700
     28 H34         25.8270    52.7290    -4.5410 hc         1 IFV       0.050950
     29 H33         25.9350    54.4920    -4.4580 hc         1 IFV       0.050950
     30 H36         23.5050    53.5380    -5.0940 hc         1 IFV       0.050950
     31 H35         24.1520    54.7370    -6.2220 hc         1 IFV       0.050950
     32 H37         23.7280    52.8470    -7.7200 h1         1 IFV       0.048700
     33 H38         24.2610    51.6560    -6.5030 h1         1 IFV       0.048700
     34 H40         29.1200    50.5560   -10.9440 h1         1 IFV       0.054367
     35 H39         28.7180    52.0930   -11.7650 h1         1 IFV       0.054367
     36 H41         29.7140    52.1050   -10.2800 h1         1 IFV       0.054367
     37 H25         24.1260    45.1200   -13.7980 ha         1 IFV       0.152000
     38 H30         26.6680    49.3630   -11.3540 hc         1 IFV       0.065700
     39 H29         26.4160    50.7970   -12.3370 hc         1 IFV       0.065700
     40 C11         24.5830    49.9290   -11.5730 c3         1 IFV      -0.069700
     41 C23         28.8760    51.6140   -10.7910 c3         1 IFV       0.078900
@<TRIPOS>BOND
     1     1     2 1   
     2     1     3 2   
     3     1    12 1   
     4     2    11 2   
     5     2    22 1   
     6     3    13 1   
     7     3    23 1   
     8     4    11 1   
     9     4    13 1   
    10     4    14 2   
    11     5    17 1   
    12     5    18 2   
    13     5    20 1   
    14     6    18 1   
    15     6    19 2   
    16     6    21 1   
    17     7     8 1   
    18     7    21 1   
    19     7    26 1   
    20     7    27 1   
    21     8     9 1   
    22     8    28 1   
    23     8    29 1   
    24     9    10 1   
    25     9    30 1   
    26     9    31 1   
    27    10    21 1   
    28    10    32 1   
    29    10    33 1   
    30    11    37 1   
    31    13    16 1   
    32    14    15 1   
    33    15    16 2   
    34    15    40 1   
    35    17    38 1   
    36    17    39 1   
    37    17    40 1   
    38    19    20 1   
    39    20    41 1   
    40    24    40 1   
    41    25    40 1   
    42    34    41 1   
    43    35    41 1   
    44    36    41 1   
@<TRIPOS>SUBSTRUCTURE
     1 IFV         1 TEMP              0 ****  ****    0 ROOT
