@<TRIPOS>MOLECULE
IFW
   59    60     1     0     0
SMALL
No Charge or Current Charge


@<TRIPOS>ATOM
      1 N1          38.7150   -11.0420    15.5010 na         1 IFW       0.120800
      2 C7          33.5650    -9.0470    14.7060 ca         1 IFW       0.126100
      3 C8          35.2520   -10.8470    14.4530 c3         1 IFW       0.154300
      4 N2          39.3740    -8.3020    16.2850 ns         1 IFW      -0.516900
      5 C9          36.6280   -11.1140    15.0060 cc         1 IFW       0.178300
      6 O1          34.7640    -9.6340    15.0610 os         1 IFW      -0.347100
      7 C1          33.9280    -6.3340    17.3150 c          1 IFW       0.605100
      8 C5          31.5730    -8.9070    13.3040 ca         1 IFW      -0.081000
      9 C6          32.7760    -9.5450    13.6460 ca         1 IFW      -0.186000
     10 N3          36.5760    -7.3740    13.5210 ns         1 IFW      -0.387400
     11 C4          31.1540    -7.7740    14.0170 ca         1 IFW      -0.135000
     12 O4          36.0470    -7.9500    12.3030 oh         1 IFW      -0.423100
     13 C3          31.9320    -7.2750    15.0750 ca         1 IFW      -0.074000
     14 O3          38.4640    -6.5570    12.5210 o          1 IFW      -0.551100
     15 C2          33.1470    -7.9060    15.4270 ca         1 IFW      -0.073000
     16 N4          38.1100   -11.8980    16.3860 nd         1 IFW      -0.215800
     17 N           33.9710    -7.4590    16.5020 ns         1 IFW      -0.151000
     18 C           35.0240    -6.2970    18.3780 c3         1 IFW      -0.178100
     19 O           33.1090    -5.4290    17.2110 o          1 IFW      -0.583100
     20 C10         37.7980   -10.5560    14.6000 cd         1 IFW      -0.178000
     21 C11         40.1150   -10.6180    15.6560 c3         1 IFW       0.053600
     22 C12         40.2630    -9.4250    16.6290 c3         1 IFW       0.089000
     23 C13         39.5560    -7.4580    15.2130 c          1 IFW       0.605100
     24 C14         38.3970    -6.5020    14.9410 c3         1 IFW      -0.222700
     25 C15         38.8140    -5.0120    15.1250 c3         1 IFW      -0.056400
     26 C16         37.7100    -3.9600    14.8170 c3         1 IFW      -0.065700
     27 C17         38.2690    -2.5250    14.9460 c3         1 IFW      -0.088600
     28 C18         36.4460    -4.1350    15.6910 c3         1 IFW      -0.088600
     29 C19         37.8460    -6.8070    13.5470 c          1 IFW       0.602100
     30 N5          36.8380   -11.9430    16.0740 nc         1 IFW      -0.336000
     31 O2          40.5750    -7.4870    14.5410 o          1 IFW      -0.569100
     32 H9          35.3280   -10.7370    13.3640 h1         1 IFW       0.052200
     33 H8          34.5880   -11.6920    14.6760 h1         1 IFW       0.052200
     34 H15         38.5180    -8.1900    16.8160 hn         1 IFW       0.317500
     35 H6          30.9660    -9.2900    12.4860 ha         1 IFW       0.113000
     36 H7          33.0780   -10.4190    13.0780 ha         1 IFW       0.118000
     37 H26         36.1480    -7.7000    14.3860 hn         1 IFW       0.328500
     38 H5          30.2200    -7.2830    13.7530 ha         1 IFW       0.118000
     39 H27         35.1480    -7.5520    12.2280 ho         1 IFW       0.455000
     40 H4          31.5680    -6.4050    15.6120 ha         1 IFW       0.129000
     41 H3          34.7230    -8.0990    16.7240 hn         1 IFW       0.155000
     42 H           35.0000    -5.3810    18.9790 hc         1 IFW       0.057033
     43 H2          34.9390    -7.1920    19.0050 hc         1 IFW       0.057033
     44 H1          35.9990    -6.4440    17.8980 hc         1 IFW       0.057033
     45 H10         38.0260    -9.8510    13.8120 h4         1 IFW       0.186000
     46 H12         40.7080   -11.4660    16.0200 h1         1 IFW       0.087700
     47 H11         40.5030   -10.3360    14.6700 h1         1 IFW       0.087700
     48 H14         40.0200    -9.7600    17.6460 h1         1 IFW       0.072700
     49 H13         41.3050    -9.0790    16.6300 h1         1 IFW       0.072700
     50 H16         37.6150    -6.7270    15.6750 hc         1 IFW       0.062700
     51 H17         39.6770    -4.8080    14.4770 hc         1 IFW       0.069200
     52 H18         39.1670    -4.8680    16.1540 hc         1 IFW       0.069200
     53 H19         37.4030    -4.0840    13.7700 hc         1 IFW       0.051700
     54 H21         37.5070    -1.7850    14.6710 hc         1 IFW       0.034200
     55 H20         38.5890    -2.3210    15.9760 hc         1 IFW       0.034200
     56 H22         39.1310    -2.3820    14.2840 hc         1 IFW       0.034200
     57 H25         35.9510    -5.0900    15.4830 hc         1 IFW       0.034200
     58 H24         36.6990    -4.0970    16.7570 hc         1 IFW       0.034200
     59 H23         35.7190    -3.3400    15.4840 hc         1 IFW       0.034200
@<TRIPOS>BOND
     1     1    16 1   
     2     1    20 1   
     3     1    21 1   
     4     2     6 1   
     5     2     9 ar  
     6     2    15 ar  
     7     3     5 1   
     8     3     6 1   
     9     3    32 1   
    10     3    33 1   
    11     4    22 1   
    12     4    23 1   
    13     4    34 1   
    14     5    20 2   
    15     5    30 1   
    16     7    17 1   
    17     7    18 1   
    18     7    19 2   
    19     8     9 ar  
    20     8    11 ar  
    21     8    35 1   
    22     9    36 1   
    23    10    12 1   
    24    10    29 1   
    25    10    37 1   
    26    11    13 ar  
    27    11    38 1   
    28    12    39 1   
    29    13    15 ar  
    30    13    40 1   
    31    14    29 2   
    32    15    17 1   
    33    16    30 2   
    34    17    41 1   
    35    18    42 1   
    36    18    43 1   
    37    18    44 1   
    38    20    45 1   
    39    21    22 1   
    40    21    46 1   
    41    21    47 1   
    42    22    48 1   
    43    22    49 1   
    44    23    24 1   
    45    23    31 2   
    46    24    25 1   
    47    24    29 1   
    48    24    50 1   
    49    25    26 1   
    50    25    51 1   
    51    25    52 1   
    52    26    27 1   
    53    26    28 1   
    54    26    53 1   
    55    27    54 1   
    56    27    55 1   
    57    27    56 1   
    58    28    57 1   
    59    28    58 1   
    60    28    59 1   
@<TRIPOS>SUBSTRUCTURE
     1 IFW         1 TEMP              0 ****  ****    0 ROOT
