@<TRIPOS>MOLECULE
IFW
   59    60     1     0     0
SMALL
abcg2


@<TRIPOS>ATOM
      1 N1          38.5110   -10.7800    15.4170 na         1 IFW       0.120800
      2 C7          33.1410    -9.5850    14.6020 ca         1 IFW       0.126100
      3 C8          35.1030   -10.8940    14.2710 c3         1 IFW       0.154300
      4 N2          39.3220    -8.0840    16.3380 ns         1 IFW      -0.516900
      5 C9          36.4520   -10.9950    14.8780 cc         1 IFW       0.178300
      6 O1          34.3430    -9.9870    15.0570 os         1 IFW      -0.347100
      7 C1          32.7460    -7.8140    17.6480 c          1 IFW       0.605100
      8 C5          31.2380    -9.6570    13.1290 ca         1 IFW      -0.081000
      9 C6          32.4880   -10.1360    13.5060 ca         1 IFW      -0.186000
     10 N3          36.5060    -6.3920    14.8390 ns         1 IFW      -0.387400
     11 C4          30.6400    -8.6240    13.8320 ca         1 IFW      -0.135000
     12 O4          35.4580    -6.9690    14.1880 oh         1 IFW      -0.423100
     13 C3          31.2990    -8.0610    14.9180 ca         1 IFW      -0.074000
     14 O3          37.9670    -6.8320    13.1680 o          1 IFW      -0.551100
     15 C2          32.5410    -8.5330    15.3130 ca         1 IFW      -0.073000
     16 N4          37.9730   -11.6660    16.2400 nd         1 IFW      -0.215800
     17 N           33.2410    -7.9740    16.3950 ns         1 IFW      -0.151000
     18 C           33.7490    -7.3090    18.6560 c3         1 IFW      -0.178100
     19 O           31.5940    -8.0700    17.9510 o          1 IFW      -0.583100
     20 C10         37.6000   -10.3210    14.5470 cd         1 IFW      -0.178000
     21 C11         39.8920   -10.3730    15.5760 c3         1 IFW       0.053600
     22 C12         40.0480    -9.2930    16.6400 c3         1 IFW       0.089000
     23 C13         39.7670    -7.1770    15.4480 c          1 IFW       0.605100
     24 C14         38.8390    -5.9810    15.2390 c3         1 IFW      -0.222700
     25 C15         39.5820    -4.7860    14.6450 c3         1 IFW      -0.056400
     26 C16         38.7190    -3.5450    14.4090 c3         1 IFW      -0.065700
     27 C17         39.5670    -2.4620    13.7490 c3         1 IFW      -0.088600
     28 C18         38.0910    -3.0160    15.6940 c3         1 IFW      -0.088600
     29 C19         37.7370    -6.4530    14.3010 c          1 IFW       0.602100
     30 N5          36.7350   -11.8040    15.9210 nc         1 IFW      -0.336000
     31 O2          40.8140    -7.3110    14.8410 o          1 IFW      -0.569100
     32 H9          35.1870   -10.5350    13.2410 h1         1 IFW       0.052200
     33 H8          34.6220   -11.8770    14.2480 h1         1 IFW       0.052200
     34 H15         38.4600    -7.9160    16.8320 hn         1 IFW       0.317500
     35 H6          30.7390   -10.0980    12.2770 ha         1 IFW       0.113000
     36 H7          32.9300   -10.9470    12.9430 ha         1 IFW       0.118000
     37 H26         36.3570    -6.2380    15.8270 hn         1 IFW       0.328500
     38 H5          29.6710    -8.2460    13.5350 ha         1 IFW       0.118000
     39 H27         34.9680    -6.2480    13.7720 ho         1 IFW       0.455000
     40 H4          30.8500    -7.2360    15.4530 ha         1 IFW       0.129000
     41 H3          34.2300    -7.8290    16.2610 hn         1 IFW       0.155000
     42 H           33.3010    -6.5160    19.2530 hc         1 IFW       0.057033
     43 H2          34.0100    -8.1220    19.3350 hc         1 IFW       0.057033
     44 H1          34.6670    -6.9330    18.2080 hc         1 IFW       0.057033
     45 H10         37.8240    -9.5930    13.7840 h4         1 IFW       0.186000
     46 H12         40.4730   -11.2510    15.8540 h1         1 IFW       0.087700
     47 H11         40.2510   -10.0240    14.6100 h1         1 IFW       0.087700
     48 H14         39.6940    -9.6680    17.5990 h1         1 IFW       0.072700
     49 H13         41.1110    -9.0770    16.7500 h1         1 IFW       0.072700
     50 H16         38.4170    -5.7020    16.2100 hc         1 IFW       0.062700
     51 H17         40.0450    -5.0870    13.7040 hc         1 IFW       0.069200
     52 H18         40.4000    -4.5170    15.3210 hc         1 IFW       0.069200
     53 H19         37.9120    -3.8020    13.7120 hc         1 IFW       0.051700
     54 H21         38.9720    -1.5770    13.5240 hc         1 IFW       0.034200
     55 H20         40.3840    -2.1520    14.4060 hc         1 IFW       0.034200
     56 H22         40.0090    -2.8140    12.8150 hc         1 IFW       0.034200
     57 H25         37.3770    -3.7130    16.1350 hc         1 IFW       0.034200
     58 H24         38.8600    -2.8110    16.4440 hc         1 IFW       0.034200
     59 H23         37.5540    -2.0840    15.5070 hc         1 IFW       0.034200
@<TRIPOS>BOND
     1     1    16 1   
     2     1    20 1   
     3     1    21 1   
     4     2     6 1   
     5     2     9 ar  
     6     2    15 ar  
     7     3     5 1   
     8     3     6 1   
     9     3    32 1   
    10     3    33 1   
    11     4    22 1   
    12     4    23 1   
    13     4    34 1   
    14     5    20 2   
    15     5    30 1   
    16     7    17 1   
    17     7    18 1   
    18     7    19 2   
    19     8     9 ar  
    20     8    11 ar  
    21     8    35 1   
    22     9    36 1   
    23    10    12 1   
    24    10    29 1   
    25    10    37 1   
    26    11    13 ar  
    27    11    38 1   
    28    12    39 1   
    29    13    15 ar  
    30    13    40 1   
    31    14    29 2   
    32    15    17 1   
    33    16    30 2   
    34    17    41 1   
    35    18    42 1   
    36    18    43 1   
    37    18    44 1   
    38    20    45 1   
    39    21    22 1   
    40    21    46 1   
    41    21    47 1   
    42    22    48 1   
    43    22    49 1   
    44    23    24 1   
    45    23    31 2   
    46    24    25 1   
    47    24    29 1   
    48    24    50 1   
    49    25    26 1   
    50    25    51 1   
    51    25    52 1   
    52    26    27 1   
    53    26    28 1   
    54    26    53 1   
    55    27    54 1   
    56    27    55 1   
    57    27    56 1   
    58    28    57 1   
    59    28    58 1   
    60    28    59 1   
@<TRIPOS>SUBSTRUCTURE
     1 IFW         1 TEMP              0 ****  ****    0 ROOT
