@<TRIPOS>MOLECULE
IFX
   41    43     1     0     0
SMALL
abcg2


@<TRIPOS>ATOM
      1 C2          10.0710   -24.9610    -6.3880 cc         1 IFX       0.757800
      2 C4          11.3070   -24.8180    -8.4760 c          1 IFX       0.492500
      3 N1           9.4820   -23.8010    -6.5160 nd         1 IFX      -0.773700
      4 C6          10.3340   -21.6200    -9.8020 ca         1 IFX       0.253900
      5 N2           9.8290   -25.7120    -5.3170 nv         1 IFX      -1.054200
      6 O4          12.0850   -25.3050    -9.2650 o          1 IFX      -0.486000
      7 C7           9.4440   -21.1740    -8.8130 ca         1 IFX       0.037500
      8 CAH          8.6750   -14.9750   -10.9630 ca         1 IFX      -0.105500
      9 CAF          8.2580   -13.6800   -11.2390 ca         1 IFX      -0.111500
     10 CAE          7.5050   -13.4180   -12.3770 ca         1 IFX      -0.109000
     11 CAG          7.1740   -14.4600   -13.2330 ca         1 IFX      -0.111500
     12 CAI          7.5920   -15.7540   -12.9510 ca         1 IFX      -0.105500
     13 CAT          8.3480   -16.0290   -11.8140 ca         1 IFX      -0.083300
     14 CAL          8.7900   -17.4280   -11.4910 c3         1 IFX      -0.041100
     15 CAY          7.9230   -18.0900   -10.4080 c3         1 IFX       0.117700
     16 CAK          6.4500   -18.1820   -10.7740 c3         1 IFX       0.142600
     17 OAD          6.3210   -18.9450   -11.9500 oh         1 IFX      -0.670000
     18 NAP          8.4640   -19.4020   -10.1070 ns         1 IFX      -0.502900
     19 CAR          8.8040   -19.8090    -8.8760 c          1 IFX       0.511600
     20 OAB          8.6490   -19.1600    -7.8570 o          1 IFX      -0.560100
     21 N8           9.1750   -21.8830    -7.7400 nb         1 IFX      -0.076000
     22 C8A          9.7660   -23.0790    -7.6180 ca         1 IFX       0.333000
     23 N3          10.9430   -25.4660    -7.3150 ns         1 IFX      -0.461400
     24 C4A         10.6530   -23.5150    -8.6230 ca         1 IFX       0.150500
     25 N5          10.9310   -22.7870    -9.6930 nb         1 IFX      -0.558000
     26 H1          10.5770   -21.0150   -10.6660 h4         1 IFX       0.038100
     27 H2           9.2070   -25.3600    -4.6090 hn         1 IFX       0.516000
     28 H3          10.2800   -26.5960    -5.1520 hn         1 IFX       0.516000
     29 H5           8.5260   -12.8740   -10.5680 ha         1 IFX       0.112500
     30 H6           7.1820   -12.4090   -12.5960 ha         1 IFX       0.112000
     31 H7           6.5900   -14.2660   -14.1240 ha         1 IFX       0.112500
     32 H8           7.3260   -16.5620   -13.6230 ha         1 IFX       0.115500
     33 H9           8.7860   -18.0400   -12.3960 hc         1 IFX       0.057700
     34 H10          9.8190   -17.4120   -11.1270 hc         1 IFX       0.057700
     35 H11          7.9890   -17.4950    -9.4960 h1         1 IFX       0.087700
     36 H12          6.0560   -17.1660   -10.8980 h1         1 IFX       0.036700
     37 H13          5.9130   -18.6360    -9.9320 h1         1 IFX       0.036700
     38 H14          5.3860   -19.0410   -12.1500 ho         1 IFX       0.447000
     39 H15          8.5310   -20.0520   -10.8750 hn         1 IFX       0.326500
     40 H16         11.3620   -26.3750    -7.1580 hn         1 IFX       0.327500
     41 H4           9.2700   -15.1700   -10.0770 ha         1 IFX       0.115500
@<TRIPOS>BOND
     1     1     3 2   
     2     1     5 1   
     3     1    23 1   
     4     2     6 2   
     5     2    23 1   
     6     2    24 1   
     7     3    22 1   
     8     4     7 ar  
     9     4    25 ar  
    10     4    26 1   
    11     5    27 1   
    12     5    28 1   
    13     7    19 1   
    14     7    21 ar  
    15     8     9 ar  
    16     8    13 ar  
    17     8    41 1   
    18     9    10 ar  
    19     9    29 1   
    20    10    11 ar  
    21    10    30 1   
    22    11    12 ar  
    23    11    31 1   
    24    12    13 ar  
    25    12    32 1   
    26    13    14 1   
    27    14    15 1   
    28    14    33 1   
    29    14    34 1   
    30    15    16 1   
    31    15    18 1   
    32    15    35 1   
    33    16    17 1   
    34    16    36 1   
    35    16    37 1   
    36    17    38 1   
    37    18    19 1   
    38    18    39 1   
    39    19    20 2   
    40    21    22 ar  
    41    22    24 ar  
    42    23    40 1   
    43    24    25 ar  
@<TRIPOS>SUBSTRUCTURE
     1 IFX         1 TEMP              0 ****  ****    0 ROOT
