@<TRIPOS>MOLECULE
IFX
   41    43     1     0     0
SMALL
No Charge or Current Charge


@<TRIPOS>ATOM
      1 C2          10.2370   -24.9780    -6.2100 cc         1 IFX       0.757800
      2 C4          11.0650   -25.1080    -8.4360 c          1 IFX       0.492500
      3 N1           9.6450   -23.8180    -6.2580 nd         1 IFX      -0.773700
      4 C6           9.9330   -21.9310    -9.9580 ca         1 IFX       0.253900
      5 N2          10.1710   -25.5980    -5.0560 nv         1 IFX      -1.054200
      6 O4          11.6740   -25.7290    -9.2970 o          1 IFX      -0.486000
      7 C7           9.2500   -21.3370    -8.8770 ca         1 IFX       0.037500
      8 CAH          8.6050   -14.8640   -10.8340 ca         1 IFX      -0.105500
      9 CAF          8.1400   -13.5530   -11.0390 ca         1 IFX      -0.111500
     10 CAE          7.4470   -13.2280   -12.2170 ca         1 IFX      -0.109000
     11 CAG          7.2200   -14.2150   -13.1910 ca         1 IFX      -0.111500
     12 CAI          7.6860   -15.5260   -12.9870 ca         1 IFX      -0.105500
     13 CAT          8.3800   -15.8580   -11.8070 ca         1 IFX      -0.083300
     14 CAL          8.8810   -17.2810   -11.5800 c3         1 IFX      -0.041100
     15 CAY          8.0320   -18.0600   -10.5450 c3         1 IFX       0.117700
     16 CAK          6.5500   -18.2560   -10.9780 c3         1 IFX       0.142600
     17 OAD          6.4460   -19.1110   -12.1320 oh         1 IFX      -0.670000
     18 NAP          8.6700   -19.3470   -10.2250 ns         1 IFX      -0.502900
     19 CAR          8.5860   -19.9840    -8.9990 c          1 IFX       0.511600
     20 OAB          7.9950   -19.4600    -8.0630 o          1 IFX      -0.560100
     21 N8           9.1670   -21.9680    -7.6800 nb         1 IFX      -0.076000
     22 C8A          9.7460   -23.1810    -7.5210 ca         1 IFX       0.333000
     23 N3          10.9040   -25.6100    -7.1880 ns         1 IFX      -0.461400
     24 C4A         10.4320   -23.7590    -8.6340 ca         1 IFX       0.150500
     25 N5          10.5260   -23.1390    -9.8470 nb         1 IFX      -0.558000
     26 H1          10.0150   -21.4470   -10.9290 h4         1 IFX       0.038100
     27 H2           9.8110   -24.9980    -4.3250 hn         1 IFX       0.516000
     28 H3          10.9800   -26.1440    -4.7890 hn         1 IFX       0.516000
     29 H5           8.3160   -12.7900   -10.2840 ha         1 IFX       0.112500
     30 H6           7.0860   -12.2140   -12.3750 ha         1 IFX       0.112000
     31 H7           6.6840   -13.9650   -14.1040 ha         1 IFX       0.112500
     32 H8           7.5020   -16.2840   -13.7460 ha         1 IFX       0.115500
     33 H9           8.9060   -17.8370   -12.5250 hc         1 IFX       0.057700
     34 H10          9.9180   -17.2430   -11.2260 hc         1 IFX       0.057700
     35 H11          8.0200   -17.4560    -9.6270 h1         1 IFX       0.087700
     36 H12          6.1010   -17.2750   -11.1850 h1         1 IFX       0.036700
     37 H13          5.9950   -18.6940   -10.1360 h1         1 IFX       0.036700
     38 H14          5.4890   -19.2060   -12.3350 ho         1 IFX       0.447000
     39 H15          9.1350   -19.8380   -10.9790 hn         1 IFX       0.326500
     40 H16         11.2870   -26.5250    -7.0090 hn         1 IFX       0.327500
     41 H4           9.1410   -15.1060    -9.9190 ha         1 IFX       0.115500
@<TRIPOS>BOND
     1     1     3 2   
     2     1     5 1   
     3     1    23 1   
     4     2     6 2   
     5     2    23 1   
     6     2    24 1   
     7     3    22 1   
     8     4     7 ar  
     9     4    25 ar  
    10     4    26 1   
    11     5    27 1   
    12     5    28 1   
    13     7    19 1   
    14     7    21 ar  
    15     8     9 ar  
    16     8    13 ar  
    17     8    41 1   
    18     9    10 ar  
    19     9    29 1   
    20    10    11 ar  
    21    10    30 1   
    22    11    12 ar  
    23    11    31 1   
    24    12    13 ar  
    25    12    32 1   
    26    13    14 1   
    27    14    15 1   
    28    14    33 1   
    29    14    34 1   
    30    15    16 1   
    31    15    18 1   
    32    15    35 1   
    33    16    17 1   
    34    16    36 1   
    35    16    37 1   
    36    17    38 1   
    37    18    19 1   
    38    18    39 1   
    39    19    20 2   
    40    21    22 ar  
    41    22    24 ar  
    42    23    40 1   
    43    24    25 ar  
@<TRIPOS>SUBSTRUCTURE
     1 IFX         1 TEMP              0 ****  ****    0 ROOT
