@<TRIPOS>MOLECULE
IFY
   45    48     1     0     0
SMALL
No Charge or Current Charge


@<TRIPOS>ATOM
      1 C11         95.1460    -8.0070    13.9400 c3         1 IFY      -0.144400
      2 C13         92.7360   -14.3470     8.1080 ca         1 IFY      -0.095500
      3 C15         93.0390   -15.1640     5.8360 ca         1 IFY      -0.111000
      4 C16         94.1740   -14.3500     5.7000 ca         1 IFY      -0.115500
      5 C17         94.5930   -13.5370     6.7680 ca         1 IFY      -0.095500
      6 C18         94.2940   -12.6710     9.1170 cc         1 IFY       0.299500
      7 C19         95.5140   -12.0480     9.1600 cd         1 IFY      -0.212000
      8 C21         94.2810   -11.6230    10.9710 cd         1 IFY       0.403800
      9 C23         93.8240   -11.0770    12.3010 c3         1 IFY      -0.101700
     10 C25         93.2100    -9.6590    12.1930 c3         1 IFY      -0.128700
     11 C1          89.4340    -8.5960    16.8690 ca         1 IFY      -0.103000
     12 C2          90.3140    -7.8460    17.6620 ca         1 IFY      -0.101000
     13 C3          91.6210    -7.5930    17.2130 ca         1 IFY      -0.076000
     14 C4          89.8610    -9.0930    15.6260 ca         1 IFY      -0.073000
     15 C5          91.1670    -8.8500    15.1580 ca         1 IFY       0.226000
     16 C6          92.0680    -8.0820    15.9710 ca         1 IFY       0.228000
     17 N7          93.3390    -7.8180    15.5690 nb         1 IFY      -0.639000
     18 C8          93.7150    -8.3170    14.3610 ca         1 IFY       0.324300
     19 C9          92.8170    -9.0800    13.5510 ca         1 IFY       0.317300
     20 N10         91.5460    -9.3460    13.9510 nb         1 IFY      -0.629000
     21 C12         93.8860   -13.5330     7.9940 ca         1 IFY      -0.101500
     22 C14         92.3190   -15.1600     7.0400 ca         1 IFY      -0.115500
     23 N20         95.5060   -11.3610    10.3630 na         1 IFY      -0.162500
     24 N22         93.5350   -12.4210    10.2230 nc         1 IFY      -0.664000
     25 H1          95.7000    -7.4820    14.7280 hc         1 IFY       0.053033
     26 H2          95.6980    -8.9260    13.7110 hc         1 IFY       0.053033
     27 H3          95.1620    -7.3710    13.0480 hc         1 IFY       0.053033
     28 H4          92.1610   -14.3580     9.0320 ha         1 IFY       0.118500
     29 H5          92.7160   -15.7930     5.0080 ha         1 IFY       0.110000
     30 H6          94.7290   -14.3460     4.7650 ha         1 IFY       0.109500
     31 H7          95.4680   -12.9080     6.6270 ha         1 IFY       0.118500
     32 H8          96.3490   -12.0440     8.4710 h4         1 IFY       0.157000
     33 H9          93.0810   -11.7540    12.7400 hc         1 IFY       0.068200
     34 H10         94.6670   -11.0620    13.0010 hc         1 IFY       0.068200
     35 H11         96.9120   -10.9030    11.8700 h1         1 IFY       0.052367
     36 H12         97.4460   -10.5400    10.2030 h1         1 IFY       0.052367
     37 H13         96.2410    -9.4880    11.0010 h1         1 IFY       0.052367
     38 H14         92.3310    -9.7050    11.5380 hc         1 IFY       0.065700
     39 H15         93.9160    -8.9920    11.6850 hc         1 IFY       0.065700
     40 H16         88.4210    -8.7930    17.2150 ha         1 IFY       0.120000
     41 H17         89.9850    -7.4600    18.6250 ha         1 IFY       0.119000
     42 H18         92.2970    -7.0110    17.8330 ha         1 IFY       0.132000
     43 H19         89.1750    -9.6740    15.0160 ha         1 IFY       0.135000
     44 H20         91.4350   -15.7860     7.1460 ha         1 IFY       0.109500
     45 C24         96.5920   -10.5210    10.8920 c3         1 IFY       0.056900
@<TRIPOS>BOND
     1     1    18 1   
     2     1    25 1   
     3     1    26 1   
     4     1    27 1   
     5     2    21 ar  
     6     2    22 ar  
     7     2    28 1   
     8     3     4 ar  
     9     3    22 ar  
    10     3    29 1   
    11     4     5 ar  
    12     4    30 1   
    13     5    21 ar  
    14     5    31 1   
    15     6     7 2   
    16     6    21 1   
    17     6    24 1   
    18     7    23 1   
    19     7    32 1   
    20     8     9 1   
    21     8    23 1   
    22     8    24 2   
    23     9    10 1   
    24     9    33 1   
    25     9    34 1   
    26    10    19 1   
    27    10    38 1   
    28    10    39 1   
    29    11    12 ar  
    30    11    14 ar  
    31    11    40 1   
    32    12    13 ar  
    33    12    41 1   
    34    13    16 ar  
    35    13    42 1   
    36    14    15 ar  
    37    14    43 1   
    38    15    16 ar  
    39    15    20 ar  
    40    16    17 ar  
    41    17    18 ar  
    42    18    19 ar  
    43    19    20 ar  
    44    22    44 1   
    45    23    45 1   
    46    35    45 1   
    47    36    45 1   
    48    37    45 1   
@<TRIPOS>SUBSTRUCTURE
     1 IFY         1 TEMP              0 ****  ****    0 ROOT
