@<TRIPOS>MOLECULE
IFY
   45    48     1     0     0
SMALL
abcg2


@<TRIPOS>ATOM
      1 C11         95.2070    -8.0960    14.0500 c3         1 IFY      -0.144400
      2 C13         92.6920   -14.2500     8.2330 ca         1 IFY      -0.095500
      3 C15         92.9140   -15.2290     6.0430 ca         1 IFY      -0.111000
      4 C16         94.0570   -14.4660     5.8320 ca         1 IFY      -0.115500
      5 C17         94.5130   -13.6000     6.8130 ca         1 IFY      -0.095500
      6 C18         94.3210   -12.5870     9.0850 cc         1 IFY       0.299500
      7 C19         95.4980   -11.8870     9.1490 cd         1 IFY      -0.212000
      8 C21         94.3130   -11.5480    10.9620 cd         1 IFY       0.403800
      9 C23         93.8870   -11.0020    12.2800 c3         1 IFY      -0.101700
     10 C25         93.3820    -9.5520    12.1770 c3         1 IFY      -0.128700
     11 C1          89.4240    -8.7100    16.6310 ca         1 IFY      -0.103000
     12 C2          90.2950    -8.0670    17.5340 ca         1 IFY      -0.101000
     13 C3          91.6000    -7.8280    17.1950 ca         1 IFY      -0.076000
     14 C4          89.8690    -9.1090    15.3980 ca         1 IFY      -0.073000
     15 C5          91.2090    -8.8760    15.0290 ca         1 IFY       0.226000
     16 C6          92.0800    -8.2310    15.9320 ca         1 IFY       0.228000
     17 N7          93.3700    -7.9940    15.5930 nb         1 IFY      -0.639000
     18 C8          93.7860    -8.3800    14.4200 ca         1 IFY       0.324300
     19 C9          92.9010    -9.0500    13.5060 ca         1 IFY       0.317300
     20 N10         91.6560    -9.2760    13.8160 nb         1 IFY      -0.629000
     21 C12         93.8410   -13.4820     8.0330 ca         1 IFY      -0.101500
     22 C14         92.2350   -15.1150     7.2490 ca         1 IFY      -0.115500
     23 N20         95.4850   -11.2410    10.3510 na         1 IFY      -0.162500
     24 N22         93.5990   -12.3600    10.2240 nc         1 IFY      -0.664000
     25 H1          95.7100    -7.5870    14.8690 hc         1 IFY       0.053033
     26 H2          95.7570    -9.0120    13.8290 hc         1 IFY       0.053033
     27 H3          95.2690    -7.4660    13.1620 hc         1 IFY       0.053033
     28 H4          92.1580   -14.1760     9.1710 ha         1 IFY       0.118500
     29 H5          92.5570   -15.9040     5.2760 ha         1 IFY       0.110000
     30 H6          94.5950   -14.5440     4.8960 ha         1 IFY       0.109500
     31 H7          95.4020   -13.0120     6.6220 ha         1 IFY       0.118500
     32 H8          96.3370   -11.8110     8.4780 h4         1 IFY       0.157000
     33 H9          93.0840   -11.6360    12.6550 hc         1 IFY       0.068200
     34 H10         94.7000   -11.0720    13.0080 hc         1 IFY       0.068200
     35 H11         96.5430   -10.3230    11.9010 h1         1 IFY       0.052367
     36 H12         97.4750   -10.6550    10.4460 h1         1 IFY       0.052367
     37 H13         96.3220    -9.3150    10.4620 h1         1 IFY       0.052367
     38 H14         92.5490    -9.5220    11.4740 hc         1 IFY       0.065700
     39 H15         94.1680    -8.9070    11.7800 hc         1 IFY       0.065700
     40 H16         88.3970    -8.8930    16.9180 ha         1 IFY       0.120000
     41 H17         89.9240    -7.7580    18.5020 ha         1 IFY       0.119000
     42 H18         92.2810    -7.3370    17.8790 ha         1 IFY       0.132000
     43 H19         89.2100    -9.5960    14.6900 ha         1 IFY       0.135000
     44 H20         91.3440   -15.7030     7.4290 ha         1 IFY       0.109500
     45 C24         96.5070   -10.3290    10.8150 c3         1 IFY       0.056900
@<TRIPOS>BOND
     1     1    18 1   
     2     1    25 1   
     3     1    26 1   
     4     1    27 1   
     5     2    21 ar  
     6     2    22 ar  
     7     2    28 1   
     8     3     4 ar  
     9     3    22 ar  
    10     3    29 1   
    11     4     5 ar  
    12     4    30 1   
    13     5    21 ar  
    14     5    31 1   
    15     6     7 2   
    16     6    21 1   
    17     6    24 1   
    18     7    23 1   
    19     7    32 1   
    20     8     9 1   
    21     8    23 1   
    22     8    24 2   
    23     9    10 1   
    24     9    33 1   
    25     9    34 1   
    26    10    19 1   
    27    10    38 1   
    28    10    39 1   
    29    11    12 ar  
    30    11    14 ar  
    31    11    40 1   
    32    12    13 ar  
    33    12    41 1   
    34    13    16 ar  
    35    13    42 1   
    36    14    15 ar  
    37    14    43 1   
    38    15    16 ar  
    39    15    20 ar  
    40    16    17 ar  
    41    17    18 ar  
    42    18    19 ar  
    43    19    20 ar  
    44    22    44 1   
    45    23    45 1   
    46    35    45 1   
    47    36    45 1   
    48    37    45 1   
@<TRIPOS>SUBSTRUCTURE
     1 IFY         1 TEMP              0 ****  ****    0 ROOT
