@<TRIPOS>MOLECULE
IFZ
   18    19     1     0     0
SMALL
bcc


@<TRIPOS>ATOM
      1 N12         22.2060    42.0070   -12.0270 nb         1 IFZ      -0.827000
      2 C01         21.7380    44.6870   -12.6530 c3         1 IFZ       0.222100
      3 C03         23.1850    42.7260   -12.5480 ca         1 IFZ       0.762200
      4 C04         24.4470    42.0830   -12.7610 ca         1 IFZ      -0.339600
      5 C05         24.5410    40.7290   -12.3930 ca         1 IFZ       0.304300
      6 C06         25.8500    40.4030   -12.7090 cc         1 IFZ      -0.095400
      7 C11         22.4320    40.7120   -11.7200 ca         1 IFZ       0.691900
      8 N02         22.9920    44.0030   -12.8600 nu         1 IFZ      -0.858900
      9 N08         26.4030    41.5230   -13.2110 na         1 IFZ       0.080800
     10 N09         25.5850    42.5570   -13.2570 nc         1 IFZ      -0.244400
     11 N10         23.5220    40.0110   -11.8610 nb         1 IFZ      -0.692000
     12 BR07        26.7480    38.8050   -12.5160 br         1 IFZ       0.020300
     13 H1          21.8520    45.7150   -12.9830 h1         1 IFZ       0.045700
     14 H2          20.9320    44.2250   -13.2230 h1         1 IFZ       0.045700
     15 H3          21.4530    44.6890   -11.6000 h1         1 IFZ       0.045700
     16 H4          21.5760    40.1940   -11.2980 h5         1 IFZ       0.045100
     17 H5          23.7620    44.5190   -13.2550 hn         1 IFZ       0.455800
     18 H6          27.3540    41.6280   -13.5400 hn         1 IFZ       0.336700
@<TRIPOS>BOND
     1     1     3 ar  
     2     1     7 ar  
     3     2     8 1   
     4     2    13 1   
     5     2    14 1   
     6     2    15 1   
     7     3     4 ar  
     8     3     8 1   
     9     4     5 ar  
    10     4    10 2   
    11     5     6 2   
    12     5    11 ar  
    13     6     9 1   
    14     6    12 1   
    15     7    11 ar  
    16     7    16 1   
    17     8    17 1   
    18     9    10 1   
    19     9    18 1   
@<TRIPOS>SUBSTRUCTURE
     1 IFZ         1 TEMP              0 ****  ****    0 ROOT
