@<TRIPOS>MOLECULE
IFZ
   18    19     1     0     0
SMALL
No Charge or Current Charge


@<TRIPOS>ATOM
      1 N12         22.1490    41.9580   -11.9920 nb         1 IFZ      -0.301000
      2 C01         21.7080    44.7720   -12.6710 c3         1 IFZ       0.222100
      3 C03         23.1710    42.6660   -12.5210 ca         1 IFZ       0.433900
      4 C04         24.4240    42.0640   -12.7420 ca         1 IFZ      -0.209000
      5 C05         24.5500    40.7420   -12.3980 ca         1 IFZ      -0.024000
      6 C06         25.8840    40.3850   -12.7160 cc         1 IFZ      -0.095400
      7 C11         22.3990    40.6570   -11.6920 ca         1 IFZ       0.165900
      8 N02         22.9530    44.0000   -12.8400 nu         1 IFZ      -0.914100
      9 N08         26.4830    41.5280   -13.2380 na         1 IFZ       0.030500
     10 N09         25.5980    42.6190   -13.2750 nc         1 IFZ      -0.244400
     11 N10         23.5680    39.9940   -11.8690 nb         1 IFZ      -0.166000
     12 Br07        26.7650    38.7290   -12.5130 br         1 IFZ       0.020300
     13 H1          21.8450    45.8060   -13.0150 h1         1 IFZ       0.045700
     14 H2          20.8910    44.3200   -13.2510 h1         1 IFZ       0.045700
     15 H3          21.4100    44.7970   -11.6140 h1         1 IFZ       0.045700
     16 H4          21.5760    40.0870   -11.2660 h5         1 IFZ       0.045100
     17 H5          23.7640    44.4780   -13.2360 hn         1 IFZ       0.511000
     18 H6          27.4400    41.6150   -13.5660 hn         1 IFZ       0.387000
@<TRIPOS>BOND
     1     1     3 ar  
     2     1     7 ar  
     3     2     8 1   
     4     2    13 1   
     5     2    14 1   
     6     2    15 1   
     7     3     4 ar  
     8     3     8 1   
     9     4     5 ar  
    10     4    10 2   
    11     5     6 2   
    12     5    11 ar  
    13     6     9 1   
    14     6    12 1   
    15     7    11 ar  
    16     7    16 1   
    17     8    17 1   
    18     9    10 1   
    19     9    18 1   
@<TRIPOS>SUBSTRUCTURE
     1 IFZ         1 TEMP              0 ****  ****    0 ROOT
