@<TRIPOS>MOLECULE
IG1
   46    49     1     0     0
SMALL
abcg2


@<TRIPOS>ATOM
      1 C13         15.9510    36.9880   -16.2240 cc         1 IG1       0.262900
      2 C15          9.7040    36.5870    -9.4290 ca         1 IG1       0.328000
      3 C19         18.6040    39.8870   -13.8360 cy         1 IG1      -0.116400
      4 C20         17.1640    40.4150   -13.6710 cy         1 IG1       0.101000
      5 C21         18.0280    38.6920   -14.6200 cy         1 IG1       0.101000
      6 C22         11.6270    39.9340   -12.2950 c3         1 IG1       0.066900
      7 C23         13.7640    34.2890   -16.0250 c3         1 IG1       0.068900
      8 C24          9.0250    34.7060    -8.3230 ca         1 IG1       0.336900
      9 C25          8.9220    37.3980    -8.6050 ca         1 IG1      -0.138000
     10 C26          8.2190    35.4260    -7.4560 ca         1 IG1      -0.168000
     11 C27          8.1720    36.8050    -7.6060 ca         1 IG1      -0.080000
     12 C1          15.2500    37.4650   -15.1060 cc         1 IG1      -0.257600
     13 C2          14.2940    36.4780   -14.8590 cd         1 IG1      -0.149600
     14 C3          11.9130    37.4390   -12.1780 cc         1 IG1      -0.011400
     15 C4          13.2770    36.2850   -13.7890 c          1 IG1       0.634700
     16 N5          10.5360    38.4490   -10.7510 nc         1 IG1      -0.524800
     17 C6          11.3770    36.4520   -11.3760 cd         1 IG1      -0.190000
     18 C7          15.4560    38.7480   -14.4140 c          1 IG1       0.672700
     19 C8          10.5260    37.1510   -10.5020 cd         1 IG1       0.199000
     20 N9          11.3720    38.6120   -11.7710 na         1 IG1       0.114800
     21 N10         12.8230    37.4220   -13.2160 ns         1 IG1      -0.397100
     22 N11         14.4850    35.5290   -15.7990 na         1 IG1       0.181800
     23 N12         15.4690    35.8340   -16.6300 nd         1 IG1      -0.513800
     24 N14         16.6900    39.2350   -14.3840 nj         1 IG1      -0.400800
     25 O16         12.8980    35.1700   -13.4830 o          1 IG1      -0.580100
     26 O17         14.5190    39.3710   -13.8970 o          1 IG1      -0.656100
     27 N18          9.7490    35.2640    -9.2840 nb         1 IG1      -0.665000
     28 H1          16.7580    37.4560   -16.7650 h4         1 IG1       0.044100
     29 H2          19.2650    40.5300   -14.4100 hc         1 IG1       0.066700
     30 H3          19.0880    39.6160   -12.9010 hc         1 IG1       0.066700
     31 H4          16.9440    41.3490   -14.1880 h1         1 IG1       0.062200
     32 H5          16.7970    40.4810   -12.6460 h1         1 IG1       0.062200
     33 H6          18.1860    37.7060   -14.1810 h1         1 IG1       0.062200
     34 H7          18.3120    38.6660   -15.6720 h1         1 IG1       0.062200
     35 H8          10.8950    40.6080   -11.8630 h1         1 IG1       0.060700
     36 H9          12.6260    40.2800   -12.0320 h1         1 IG1       0.060700
     37 H10         11.5170    39.9470   -13.3780 h1         1 IG1       0.060700
     38 H11         14.0440    33.9380   -17.0120 h1         1 IG1       0.072033
     39 H12         14.0340    33.5400   -15.2850 h1         1 IG1       0.072033
     40 H13         12.6920    34.4540   -15.9960 h1         1 IG1       0.072033
     41 H14          9.0900    33.6260    -8.2390 h4         1 IG1       0.016100
     42 H15          8.9090    38.4700    -8.7480 ha         1 IG1       0.138000
     43 H16          7.6490    34.9200    -6.6890 ha         1 IG1       0.120000
     44 H17          7.5580    37.4110    -6.9530 ha         1 IG1       0.116000
     45 H18         11.5650    35.3960   -11.4020 ha         1 IG1       0.178000
     46 H19         13.2780    38.3050   -13.5040 hn         1 IG1       0.385500
@<TRIPOS>BOND
     1     1    12 1   
     2     1    23 2   
     3     1    28 1   
     4     2     9 ar  
     5     2    19 1   
     6     2    27 ar  
     7     3     4 1   
     8     3     5 1   
     9     3    29 1   
    10     3    30 1   
    11     4    24 1   
    12     4    31 1   
    13     4    32 1   
    14     5    24 1   
    15     5    33 1   
    16     5    34 1   
    17     6    20 1   
    18     6    35 1   
    19     6    36 1   
    20     6    37 1   
    21     7    22 1   
    22     7    38 1   
    23     7    39 1   
    24     7    40 1   
    25     8    10 ar  
    26     8    27 ar  
    27     8    41 1   
    28     9    11 ar  
    29     9    42 1   
    30    10    11 ar  
    31    10    43 1   
    32    11    44 1   
    33    12    13 2   
    34    12    18 1   
    35    13    15 1   
    36    13    22 1   
    37    14    17 2   
    38    14    20 1   
    39    14    21 1   
    40    15    21 1   
    41    15    25 2   
    42    16    19 2   
    43    16    20 1   
    44    17    19 1   
    45    17    45 1   
    46    18    24 1   
    47    18    26 2   
    48    21    46 1   
    49    22    23 1   
@<TRIPOS>SUBSTRUCTURE
     1 IG1         1 TEMP              0 ****  ****    0 ROOT
