@<TRIPOS>MOLECULE
IG1
   46    49     1     0     0
SMALL
No Charge or Current Charge


@<TRIPOS>ATOM
      1 C13         16.0840    36.7320   -16.1940 cc         1 IG1       0.262900
      2 C15          9.5370    36.5570    -9.4910 ca         1 IG1       0.328000
      3 C19         17.7890    40.8910   -14.6380 cy         1 IG1      -0.116400
      4 C20         16.4150    40.4880   -15.2620 cy         1 IG1       0.101000
      5 C21         17.7630    39.4880   -13.9520 cy         1 IG1       0.101000
      6 C22         13.1930    39.5340   -10.8490 c3         1 IG1       0.066900
      7 C23         13.8400    34.0510   -16.0660 c3         1 IG1       0.068900
      8 C24          7.9560    34.8570    -9.2440 ca         1 IG1       0.336900
      9 C25          9.0080    37.2410    -8.3710 ca         1 IG1      -0.138000
     10 C26          7.3820    35.4820    -8.1260 ca         1 IG1      -0.168000
     11 C27          7.9150    36.6990    -7.6760 ca         1 IG1      -0.080000
     12 C1          15.3850    37.2090   -15.0680 cc         1 IG1      -0.257600
     13 C2          14.3900    36.2540   -14.8180 cd         1 IG1      -0.149600
     14 C3          12.3270    37.3150   -11.7820 cc         1 IG1      -0.011400
     15 C4          13.3020    36.1400   -13.7740 c          1 IG1       0.634700
     16 N5          11.2940    38.2490    -9.9270 nc         1 IG1      -0.524800
     17 C6          11.3040    36.5060   -11.3810 cd         1 IG1      -0.190000
     18 C7          15.7620    38.4960   -14.3970 c          1 IG1       0.672700
     19 C8          10.6990    37.1060   -10.2510 cd         1 IG1       0.199000
     20 N9          12.2940    38.3700   -10.8720 na         1 IG1       0.114800
     21 N10         13.2140    37.1500   -12.8450 ns         1 IG1      -0.397100
     22 N11         14.6000    35.2920   -15.8330 na         1 IG1       0.181800
     23 N12         15.6490    35.5970   -16.6770 nd         1 IG1      -0.513800
     24 N14         16.8780    39.0690   -15.0900 nj         1 IG1      -0.400800
     25 O16         12.5280    35.1930   -13.7480 o          1 IG1      -0.580100
     26 O17         15.1380    38.8890   -13.4200 o          1 IG1      -0.656100
     27 N18          9.0090    35.3750    -9.9170 nb         1 IG1      -0.665000
     28 H1          16.9270    37.1880   -16.6970 h4         1 IG1       0.044100
     29 H2          18.5950    41.0190   -15.3690 hc         1 IG1       0.066700
     30 H3          17.7750    41.7550   -13.9650 hc         1 IG1       0.066700
     31 H4          16.3000    40.7800   -16.3120 h1         1 IG1       0.062200
     32 H5          15.5480    40.8230   -14.6800 h1         1 IG1       0.062200
     33 H6          17.3380    39.4970   -12.9410 h1         1 IG1       0.062200
     34 H7          18.7320    38.9770   -13.9480 h1         1 IG1       0.062200
     35 H8          12.9270    40.2000   -10.0190 h1         1 IG1       0.060700
     36 H9          14.2270    39.1940   -10.7210 h1         1 IG1       0.060700
     37 H10         13.1040    40.0830   -11.7940 h1         1 IG1       0.060700
     38 H11         14.2470    33.5170   -16.9330 h1         1 IG1       0.072033
     39 H12         13.9130    33.4050   -15.1830 h1         1 IG1       0.072033
     40 H13         12.7890    34.2940   -16.2580 h1         1 IG1       0.072033
     41 H14          7.5620    33.9120    -9.6140 h4         1 IG1       0.016100
     42 H15          9.4420    38.1820    -8.0460 ha         1 IG1       0.138000
     43 H16          6.5360    35.0240    -7.6210 ha         1 IG1       0.120000
     44 H17          7.4930    37.2100    -6.8120 ha         1 IG1       0.116000
     45 H18         10.9950    35.5710   -11.8320 ha         1 IG1       0.178000
     46 H19         13.9130    37.8700   -12.9810 hn         1 IG1       0.385500
@<TRIPOS>BOND
     1     1    12 1   
     2     1    23 2   
     3     1    28 1   
     4     2     9 ar  
     5     2    19 1   
     6     2    27 ar  
     7     3     4 1   
     8     3     5 1   
     9     3    29 1   
    10     3    30 1   
    11     4    24 1   
    12     4    31 1   
    13     4    32 1   
    14     5    24 1   
    15     5    33 1   
    16     5    34 1   
    17     6    20 1   
    18     6    35 1   
    19     6    36 1   
    20     6    37 1   
    21     7    22 1   
    22     7    38 1   
    23     7    39 1   
    24     7    40 1   
    25     8    10 ar  
    26     8    27 ar  
    27     8    41 1   
    28     9    11 ar  
    29     9    42 1   
    30    10    11 ar  
    31    10    43 1   
    32    11    44 1   
    33    12    13 2   
    34    12    18 1   
    35    13    15 1   
    36    13    22 1   
    37    14    17 2   
    38    14    20 1   
    39    14    21 1   
    40    15    21 1   
    41    15    25 2   
    42    16    19 2   
    43    16    20 1   
    44    17    19 1   
    45    17    45 1   
    46    18    24 1   
    47    18    26 2   
    48    21    46 1   
    49    22    23 1   
@<TRIPOS>SUBSTRUCTURE
     1 IG1         1 TEMP              0 ****  ****    0 ROOT
