@<TRIPOS>MOLECULE
IG3
   63    67     1     0     0
SMALL
abcg2


@<TRIPOS>ATOM
      1 C10         -1.8590     1.4620   -10.9630 ca         1 IG3      -0.097500
      2 C20         -7.7690     1.7070   -15.2560 cc         1 IG3       0.543800
      3 C22         -5.5970     1.8780   -15.9150 ca         1 IG3       0.293000
      4 C24         -3.4250     2.0550   -16.4910 ca         1 IG3       0.075900
      5 C28         -7.0930     0.3190   -17.1060 c          1 IG3       0.475500
      6 C01          1.6340    -2.1830    -9.9430 c3         1 IG3      -0.382100
      7 S02          1.1020    -1.1860    -8.5700 s6         1 IG3       1.185100
      8 O03         -0.2880    -1.5010    -8.2930 o          1 IG3      -0.526000
      9 O04          2.0920    -1.2820    -7.5110 o          1 IG3      -0.526000
     10 N05          1.1600     0.3960    -9.0910 nu         1 IG3      -0.868100
     11 C06          0.3240     0.8160   -10.1580 ca         1 IG3       0.224000
     12 C07          0.8700     1.0540   -11.4160 ca         1 IG3      -0.138000
     13 C08          0.0520     1.5030   -12.4390 ca         1 IG3      -0.107000
     14 C09         -1.3030     1.6980   -12.2220 ca         1 IG3      -0.077000
     15 C11         -3.2930     1.6930   -10.7450 cc         1 IG3       0.358500
     16 C12         -4.0000     1.4500    -9.6070 cd         1 IG3      -0.290000
     17 S13         -5.6540     1.8740    -9.8160 ss         1 IG3       0.064600
     18 C14         -5.2730     2.3520   -11.4330 cd         1 IG3       0.539300
     19 N15         -6.1970     2.8520   -12.3140 ns         1 IG3      -0.459400
     20 C16         -7.5220     2.9770   -12.0590 c          1 IG3       0.608100
     21 O17         -8.0080     2.7010   -10.9810 o          1 IG3      -0.566100
     22 C18         -8.3380     3.4990   -13.2230 c3         1 IG3      -0.043400
     23 S19         -9.0920     2.1710   -14.1950 ss         1 IG3      -0.179200
     24 N21         -6.6190     2.2640   -15.1060 nd         1 IG3      -0.759700
     25 N23         -4.4030     2.4430   -15.7050 nb         1 IG3      -0.099000
     26 C25         -3.6090     1.1020   -17.5050 ca         1 IG3       0.262900
     27 N26         -4.7780     0.5410   -17.7130 nb         1 IG3      -0.559000
     28 C27         -5.7730     0.9240   -16.9170 ca         1 IG3       0.183500
     29 O29         -7.3580    -0.4910   -17.9640 o          1 IG3      -0.473000
     30 N30         -8.0580     0.7540   -16.1910 n          1 IG3      -0.326300
     31 C31         -9.4050     0.1930   -16.3330 c3         1 IG3       0.085000
     32 C32        -10.2680     1.0010   -17.3020 c3         1 IG3      -0.047100
     33 C33        -11.6420     0.3990   -17.3950 ca         1 IG3      -0.091300
     34 C34        -12.6490     0.8010   -16.5210 ca         1 IG3      -0.102500
     35 C35        -13.9090     0.2210   -16.5770 ca         1 IG3      -0.108500
     36 C36        -14.1780    -0.7730   -17.5090 ca         1 IG3      -0.104000
     37 C37        -13.1800    -1.1820   -18.3830 ca         1 IG3      -0.108500
     38 C38        -11.9210    -0.6000   -18.3250 ca         1 IG3      -0.102500
     39 N39         -4.0360     2.2080   -11.7740 nc         1 IG3      -0.699000
     40 C40         -1.0280     1.0280    -9.9300 ca         1 IG3      -0.069000
     41 H1          -2.4500     2.4990   -16.3320 h4         1 IG3       0.037100
     42 H2           1.5960    -3.2260    -9.6310 h1         1 IG3       0.102367
     43 H3           0.9650    -2.0270   -10.7870 h1         1 IG3       0.102367
     44 H4           2.6520    -1.9100   -10.2110 h1         1 IG3       0.102367
     45 H5           2.1200     0.7190    -9.1670 hn         1 IG3       0.485000
     46 H6           1.9270     0.8890   -11.5860 ha         1 IG3       0.110000
     47 H7           0.4720     1.6950   -13.4180 ha         1 IG3       0.115000
     48 H8          -1.9330     2.0390   -13.0310 ha         1 IG3       0.141000
     49 H9          -3.6560     1.0460    -8.6680 h4         1 IG3       0.168000
     50 H10         -5.8800     2.9880   -13.2710 hn         1 IG3       0.376500
     51 H11         -7.7740     4.1590   -13.8810 h1         1 IG3       0.113200
     52 H12         -9.1910     4.0520   -12.8310 h1         1 IG3       0.113200
     53 H13         -2.7820     0.8070   -18.1390 h4         1 IG3       0.041100
     54 H14         -9.8710     0.1310   -15.3500 h1         1 IG3       0.080200
     55 H15         -9.2990    -0.8310   -16.6810 h1         1 IG3       0.080200
     56 H16         -9.7920     1.0120   -18.2850 hc         1 IG3       0.061700
     57 H17        -10.3350     2.0360   -16.9630 hc         1 IG3       0.061700
     58 H18        -12.4460     1.5780   -15.7930 ha         1 IG3       0.114500
     59 H19        -14.6830     0.5480   -15.8940 ha         1 IG3       0.115000
     60 H20        -15.1610    -1.2240   -17.5550 ha         1 IG3       0.115000
     61 H21        -13.3820    -1.9550   -19.1140 ha         1 IG3       0.115000
     62 H22        -11.1460    -0.9210   -19.0110 ha         1 IG3       0.114500
     63 H23         -1.4210     0.8760    -8.9340 ha         1 IG3       0.143000
@<TRIPOS>BOND
     1     1    14 ar  
     2     1    15 1   
     3     1    40 ar  
     4     2    23 1   
     5     2    24 2   
     6     2    30 1   
     7     3    24 1   
     8     3    25 ar  
     9     3    28 ar  
    10     4    25 ar  
    11     4    26 ar  
    12     4    41 1   
    13     5    28 1   
    14     5    29 2   
    15     5    30 1   
    16     6     7 1   
    17     6    42 1   
    18     6    43 1   
    19     6    44 1   
    20     7     8 2   
    21     7     9 2   
    22     7    10 1   
    23    10    11 1   
    24    10    45 1   
    25    11    12 ar  
    26    11    40 ar  
    27    12    13 ar  
    28    12    46 1   
    29    13    14 ar  
    30    13    47 1   
    31    14    48 1   
    32    15    16 2   
    33    15    39 1   
    34    16    17 1   
    35    16    49 1   
    36    17    18 1   
    37    18    19 1   
    38    18    39 2   
    39    19    20 1   
    40    19    50 1   
    41    20    21 2   
    42    20    22 1   
    43    22    23 1   
    44    22    51 1   
    45    22    52 1   
    46    26    27 ar  
    47    26    53 1   
    48    27    28 ar  
    49    30    31 1   
    50    31    32 1   
    51    31    54 1   
    52    31    55 1   
    53    32    33 1   
    54    32    56 1   
    55    32    57 1   
    56    33    34 ar  
    57    33    38 ar  
    58    34    35 ar  
    59    34    58 1   
    60    35    36 ar  
    61    35    59 1   
    62    36    37 ar  
    63    36    60 1   
    64    37    38 ar  
    65    37    61 1   
    66    38    62 1   
    67    40    63 1   
@<TRIPOS>SUBSTRUCTURE
     1 IG3         1 TEMP              0 ****  ****    0 ROOT
