@<TRIPOS>MOLECULE
IG3
   63    67     1     0     0
SMALL
No Charge or Current Charge


@<TRIPOS>ATOM
      1 C10         -1.9340     1.6090   -11.3910 ca         1 IG3      -0.097500
      2 C20         -7.6230     2.2240   -15.1900 cc         1 IG3       0.543800
      3 C22         -5.4210     2.7110   -15.7360 ca         1 IG3       0.293000
      4 C24         -3.2010     3.1900   -16.2340 ca         1 IG3       0.075900
      5 C28         -6.5140     0.6580   -16.6740 c          1 IG3       0.475500
      6 C01         -0.7880    -2.7950   -10.0540 c3         1 IG3      -0.382100
      7 S02          0.3470    -1.7900    -9.1200 s6         1 IG3       1.185100
      8 O03         -0.3740    -1.1100    -8.0410 o          1 IG3      -0.526000
      9 O04          1.5490    -2.5730    -8.8340 o          1 IG3      -0.526000
     10 N05          0.8460    -0.6100   -10.1790 nu         1 IG3      -0.868100
     11 C06          0.0990     0.2960   -10.9360 ca         1 IG3       0.224000
     12 C07          0.6980     0.8460   -12.0810 ca         1 IG3      -0.138000
     13 C08         -0.0080     1.7480   -12.8910 ca         1 IG3      -0.107000
     14 C09         -1.3180     2.1200   -12.5540 ca         1 IG3      -0.077000
     15 C11         -3.3220     1.9810   -11.0710 cc         1 IG3       0.358500
     16 C12         -3.7900     1.8900    -9.7850 cd         1 IG3      -0.290000
     17 S13         -5.4610     2.4210    -9.7200 ss         1 IG3       0.064600
     18 C14         -5.3480     2.7350   -11.4600 cd         1 IG3       0.539300
     19 N15         -6.3460     3.2250   -12.2460 ns         1 IG3      -0.459400
     20 C16         -7.6450     3.5220   -11.9360 c          1 IG3       0.608100
     21 O17         -8.1160     3.3770   -10.8180 o          1 IG3      -0.566100
     22 C18         -8.4790     4.0580   -13.1060 c3         1 IG3      -0.043400
     23 S19         -9.0580     2.7160   -14.2690 ss         1 IG3      -0.179200
     24 N21         -6.6020     3.0670   -15.0560 nd         1 IG3      -0.759700
     25 N23         -4.3450     3.5220   -15.6020 nb         1 IG3      -0.099000
     26 C25         -3.1010     2.0340   -17.0250 ca         1 IG3       0.262900
     27 N26         -4.1520     1.2010   -17.1880 nb         1 IG3      -0.559000
     28 C27         -5.3090     1.5430   -16.5400 ca         1 IG3       0.183500
     29 O29         -6.5110    -0.3540   -17.3710 o          1 IG3      -0.473000
     30 N30         -7.6490     1.0600   -15.9560 n          1 IG3      -0.326300
     31 C31         -8.8690     0.2060   -16.0290 c3         1 IG3       0.085000
     32 C32         -9.8850     0.6920   -17.0830 c3         1 IG3      -0.047100
     33 C33        -11.1420    -0.1660   -17.0930 ca         1 IG3      -0.091300
     34 C34        -12.2080     0.1310   -16.2220 ca         1 IG3      -0.102500
     35 C35        -13.3670    -0.6650   -16.2240 ca         1 IG3      -0.108500
     36 C36        -13.4650    -1.7630   -17.0950 ca         1 IG3      -0.104000
     37 C37        -12.4030    -2.0640   -17.9640 ca         1 IG3      -0.108500
     38 C38        -11.2440    -1.2690   -17.9630 ca         1 IG3      -0.102500
     39 N39         -4.1840     2.4660   -12.0170 nc         1 IG3      -0.699000
     40 C40         -1.2170     0.6810   -10.5980 ca         1 IG3      -0.069000
     41 H1          -2.3540     3.8610   -16.1050 h4         1 IG3       0.037100
     42 H2          -1.1210    -3.6070    -9.4000 h1         1 IG3       0.102367
     43 H3          -1.6270    -2.1630   -10.3580 h1         1 IG3       0.102367
     44 H4          -0.2470    -3.1830   -10.9230 h1         1 IG3       0.102367
     45 H5           1.7360    -0.9210   -10.5450 hn         1 IG3       0.485000
     46 H6           1.7120     0.5660   -12.3530 ha         1 IG3       0.110000
     47 H7           0.4610     2.1590   -13.7830 ha         1 IG3       0.115000
     48 H8          -1.8510     2.8180   -13.1970 ha         1 IG3       0.141000
     49 H9          -3.2780     1.5710    -8.8880 h4         1 IG3       0.168000
     50 H10         -6.1200     3.3490   -13.2270 hn         1 IG3       0.376500
     51 H11         -7.9010     4.8150   -13.6480 h1         1 IG3       0.113200
     52 H12         -9.3590     4.5500   -12.6760 h1         1 IG3       0.113200
     53 H13         -2.1730     1.7740   -17.5330 h4         1 IG3       0.041100
     54 H14         -9.3550     0.1700   -15.0460 h1         1 IG3       0.080200
     55 H15         -8.5940    -0.8320   -16.2560 h1         1 IG3       0.080200
     56 H16         -9.4070     0.6800   -18.0700 hc         1 IG3       0.061700
     57 H17        -10.1470     1.7380   -16.8850 hc         1 IG3       0.061700
     58 H18        -12.1400     0.9780   -15.5420 ha         1 IG3       0.114500
     59 H19        -14.1880    -0.4310   -15.5500 ha         1 IG3       0.115000
     60 H20        -14.3610    -2.3790   -17.0970 ha         1 IG3       0.115000
     61 H21        -12.4770    -2.9150   -18.6380 ha         1 IG3       0.115000
     62 H22        -10.4250    -1.5110   -18.6370 ha         1 IG3       0.114500
     63 H23         -1.6890     0.2540    -9.7210 ha         1 IG3       0.143000
@<TRIPOS>BOND
     1     1    14 ar  
     2     1    15 1   
     3     1    40 ar  
     4     2    23 1   
     5     2    24 2   
     6     2    30 1   
     7     3    24 1   
     8     3    25 ar  
     9     3    28 ar  
    10     4    25 ar  
    11     4    26 ar  
    12     4    41 1   
    13     5    28 1   
    14     5    29 2   
    15     5    30 1   
    16     6     7 1   
    17     6    42 1   
    18     6    43 1   
    19     6    44 1   
    20     7     8 2   
    21     7     9 2   
    22     7    10 1   
    23    10    11 1   
    24    10    45 1   
    25    11    12 ar  
    26    11    40 ar  
    27    12    13 ar  
    28    12    46 1   
    29    13    14 ar  
    30    13    47 1   
    31    14    48 1   
    32    15    16 2   
    33    15    39 1   
    34    16    17 1   
    35    16    49 1   
    36    17    18 1   
    37    18    19 1   
    38    18    39 2   
    39    19    20 1   
    40    19    50 1   
    41    20    21 2   
    42    20    22 1   
    43    22    23 1   
    44    22    51 1   
    45    22    52 1   
    46    26    27 ar  
    47    26    53 1   
    48    27    28 ar  
    49    30    31 1   
    50    31    32 1   
    51    31    54 1   
    52    31    55 1   
    53    32    33 1   
    54    32    56 1   
    55    32    57 1   
    56    33    34 ar  
    57    33    38 ar  
    58    34    35 ar  
    59    34    58 1   
    60    35    36 ar  
    61    35    59 1   
    62    36    37 ar  
    63    36    60 1   
    64    37    38 ar  
    65    37    61 1   
    66    38    62 1   
    67    40    63 1   
@<TRIPOS>SUBSTRUCTURE
     1 IG3         1 TEMP              0 ****  ****    0 ROOT
