@<TRIPOS>MOLECULE
IG5
   87    89     1     0     0
SMALL
No Charge or Current Charge


@<TRIPOS>ATOM
      1 C4         -30.4310    19.7230    -6.1660 c3         1 IG5      -0.067400
      2 C5         -28.8890    19.8780    -6.0970 c3         1 IG5      -0.069400
      3 C6         -28.1490    18.7910    -5.2790 c3         1 IG5      -0.071400
      4 C7         -28.1580    17.3480    -5.8690 c3         1 IG5      -0.068400
      5 C8         -29.0400    17.0840    -7.1420 c3         1 IG5      -0.046700
      6 C13        -24.8170    17.0800   -10.2950 c3         1 IG5      -0.104400
      7 C15        -22.5940    17.9780   -11.1430 c3         1 IG5      -0.100100
      8 C17        -22.7170    16.8680    -8.8600 c3         1 IG5      -0.100100
      9 C20        -32.6760    15.8210    -5.9310 c6         1 IG5      -0.072400
     10 C21        -31.1610    15.8040    -6.2790 c6         1 IG5      -0.071400
     11 C24        -35.6520    20.4580    -6.1100 c2         1 IG5      -0.104400
     12 C26        -37.8260    21.3870    -5.0980 c6         1 IG5       0.214500
     13 C28        -37.3460    22.7970    -5.4570 c2         1 IG5      -0.157400
     14 C12        -26.1520    16.7960    -8.6330 c3         1 IG5      -0.071400
     15 C14        -23.4710    17.7300    -9.8970 c3         1 IG5       0.184000
     16 C18        -32.5620    18.3190    -5.6720 c2         1 IG5      -0.088400
     17 C19        -33.0360    17.0170    -5.0260 c6         1 IG5      -0.044200
     18 C2         -30.6220    17.1510    -6.8900 c6         1 IG5      -0.023000
     19 C23        -34.8560    19.3680    -5.9540 ce         1 IG5      -0.170000
     20 C25        -37.1760    20.3370    -6.0360 c6         1 IG5      -0.056700
     21 C29        -35.8140    22.9110    -5.4260 c6         1 IG5       0.214500
     22 C3         -31.0310    18.3000    -5.8820 c6         1 IG5      -0.017500
     23 C31        -35.1670    21.8860    -6.3900 c6         1 IG5      -0.056700
     24 C32        -38.1780    23.8130    -5.7900 c2         1 IG5      -0.187200
     25 C33        -39.6970    23.7770    -5.8930 c3         1 IG5      -0.043200
     26 C34        -40.4030    24.0760    -4.5530 c3         1 IG5       0.164600
     27 C9         -28.5270    15.8280    -7.9650 c3         1 IG5      -0.054700
     28 O16        -23.7540    18.9930    -9.2960 oh         1 IG5      -0.659000
     29 O27        -37.5110    21.1060    -3.7290 oh         1 IG5      -0.658000
     30 O30        -35.3630    24.2310    -5.7520 oh         1 IG5      -0.658000
     31 O35        -40.1260    25.4180    -4.1320 oh         1 IG5      -0.662000
     32 H1         -30.7640    20.0940    -7.1420 hc         1 IG5       0.039700
     33 H2         -30.8460    20.4180    -5.4250 hc         1 IG5       0.039700
     34 H3         -28.4700    19.9300    -7.1090 hc         1 IG5       0.036200
     35 H4         -28.6650    20.8550    -5.6510 hc         1 IG5       0.036200
     36 H5         -28.5540    18.7710    -4.2590 hc         1 IG5       0.036700
     37 H6         -27.1040    19.1070    -5.1670 hc         1 IG5       0.036700
     38 H7         -28.4540    16.6500    -5.0770 hc         1 IG5       0.038700
     39 H8         -27.1150    17.0990    -6.0900 hc         1 IG5       0.038700
     40 H9         -28.8210    17.9140    -7.8200 hc         1 IG5       0.050700
     41 H10        -28.8010    14.3390    -6.3540 hc         1 IG5       0.031700
     42 H11        -27.8880    13.7430    -7.7430 hc         1 IG5       0.031700
     43 H12        -27.1170    14.8300    -6.5820 hc         1 IG5       0.031700
     44 H13        -25.3210    17.6990   -11.0480 hc         1 IG5       0.038700
     45 H14        -24.6280    16.1070   -10.7650 hc         1 IG5       0.038700
     46 H15        -23.1240    18.5970   -11.8770 hc         1 IG5       0.040867
     47 H16        -21.6620    18.4900   -10.8730 hc         1 IG5       0.040867
     48 H17        -22.3310    17.0300   -11.6270 hc         1 IG5       0.040867
     49 H18        -23.3040    16.7490    -7.9420 hc         1 IG5       0.040867
     50 H19        -22.5090    15.8700    -9.2630 hc         1 IG5       0.040867
     51 H20        -21.7610    17.3310    -8.5890 hc         1 IG5       0.040867
     52 H21        -33.2740    15.8600    -6.8510 hc         1 IG5       0.039200
     53 H22        -32.9490    14.8830    -5.4300 hc         1 IG5       0.039200
     54 H23        -30.9890    14.9690    -6.9690 hc         1 IG5       0.040700
     55 H24        -30.6000    15.5670    -5.3650 hc         1 IG5       0.040700
     56 H25        -32.9430    20.2040    -6.5420 ha         1 IG5       0.175000
     57 H26        -38.9140    21.3100    -5.2300 h1         1 IG5       0.045700
     58 H27        -32.3810    17.5810    -8.2010 hc         1 IG5       0.034033
     59 H28        -30.8880    18.3040    -8.7770 hc         1 IG5       0.034033
     60 H29        -31.1790    16.5760    -8.9790 hc         1 IG5       0.034033
     61 H30        -27.9620    16.8620    -9.7990 hc         1 IG5       0.034200
     62 H31        -27.2710    15.2640    -9.6490 hc         1 IG5       0.034200
     63 H32        -25.6670    16.1490    -7.8940 hc         1 IG5       0.047200
     64 H33        -26.3290    17.7690    -8.1600 hc         1 IG5       0.047200
     65 H34        -34.1090    17.0070    -4.8100 hc         1 IG5       0.044700
     66 H35        -32.5460    16.8960    -4.0500 hc         1 IG5       0.044700
     67 H36        -35.3450    18.4150    -5.7620 ha         1 IG5       0.164000
     68 H37        -37.5840    20.4710    -7.0470 hc         1 IG5       0.056450
     69 H38        -37.4760    19.3270    -5.7270 hc         1 IG5       0.056450
     70 H39        -35.4740    22.6620    -4.4090 h1         1 IG5       0.045700
     71 H40        -30.6310    18.0310    -4.8950 hc         1 IG5       0.055700
     72 H41        -34.0790    21.9760    -6.3020 hc         1 IG5       0.056450
     73 H42        -35.4150    22.1510    -7.4270 hc         1 IG5       0.056450
     74 H43        -37.7770    24.7940    -6.0490 ha         1 IG5       0.192000
     75 H44        -40.0420    22.8050    -6.2610 hc         1 IG5       0.052200
     76 H45        -40.0350    24.5030    -6.6430 hc         1 IG5       0.052200
     77 H46        -40.0610    23.3570    -3.7960 h1         1 IG5       0.020200
     78 H47        -41.4850    23.9380    -4.6820 h1         1 IG5       0.020200
     79 H48        -29.3800    15.4390    -8.5290 hc         1 IG5       0.045700
     80 H49        -24.3370    19.4770    -9.9180 ho         1 IG5       0.438000
     81 H50        -37.8010    20.1840    -3.5600 ho         1 IG5       0.445000
     82 H51        -35.6760    24.8100    -5.0240 ho         1 IG5       0.445000
     83 H52        -40.5760    25.5440    -3.2680 ho         1 IG5       0.442000
     84 C10        -28.0570    14.6190    -7.1050 c3         1 IG5      -0.086100
     85 C22        -33.3830    19.3350    -6.0620 ce         1 IG5      -0.192000
     86 C1         -31.3020    17.4150    -8.2860 c3         1 IG5      -0.086100
     87 C11        -27.4930    16.1770    -9.0820 c3         1 IG5      -0.074400
@<TRIPOS>BOND
     1     1     2 1   
     2     1    22 1   
     3     1    32 1   
     4     1    33 1   
     5     2     3 1   
     6     2    34 1   
     7     2    35 1   
     8     3     4 1   
     9     3    36 1   
    10     3    37 1   
    11     4     5 1   
    12     4    38 1   
    13     4    39 1   
    14     5    18 1   
    15     5    27 1   
    16     5    40 1   
    17     6    14 1   
    18     6    15 1   
    19     6    44 1   
    20     6    45 1   
    21     7    15 1   
    22     7    46 1   
    23     7    47 1   
    24     7    48 1   
    25     8    15 1   
    26     8    49 1   
    27     8    50 1   
    28     8    51 1   
    29     9    10 1   
    30     9    17 1   
    31     9    52 1   
    32     9    53 1   
    33    10    18 1   
    34    10    54 1   
    35    10    55 1   
    36    11    19 2   
    37    11    20 1   
    38    11    23 1   
    39    12    13 1   
    40    12    20 1   
    41    12    29 1   
    42    12    57 1   
    43    13    21 1   
    44    13    24 2   
    45    14    63 1   
    46    14    64 1   
    47    14    87 1   
    48    15    28 1   
    49    16    17 1   
    50    16    22 1   
    51    16    85 2   
    52    17    65 1   
    53    17    66 1   
    54    18    22 1   
    55    18    86 1   
    56    19    67 1   
    57    19    85 1   
    58    20    68 1   
    59    20    69 1   
    60    21    23 1   
    61    21    30 1   
    62    21    70 1   
    63    22    71 1   
    64    23    72 1   
    65    23    73 1   
    66    24    25 1   
    67    24    74 1   
    68    25    26 1   
    69    25    75 1   
    70    25    76 1   
    71    26    31 1   
    72    26    77 1   
    73    26    78 1   
    74    27    79 1   
    75    27    84 1   
    76    27    87 1   
    77    28    80 1   
    78    29    81 1   
    79    30    82 1   
    80    31    83 1   
    81    41    84 1   
    82    42    84 1   
    83    43    84 1   
    84    56    85 1   
    85    58    86 1   
    86    59    86 1   
    87    60    86 1   
    88    61    87 1   
    89    62    87 1   
@<TRIPOS>SUBSTRUCTURE
     1 IG5         1 TEMP              0 ****  ****    0 ROOT
