@<TRIPOS>MOLECULE
IG5
   87    89     1     0     0
SMALL
abcg2


@<TRIPOS>ATOM
      1 C4         -30.3750    19.5940    -6.0410 c3         1 IG5      -0.067400
      2 C5         -28.8430    19.7200    -5.9830 c3         1 IG5      -0.069400
      3 C6         -28.1520    18.6050    -5.2070 c3         1 IG5      -0.071400
      4 C7         -28.2000    17.2080    -5.8750 c3         1 IG5      -0.068400
      5 C8         -29.0290    17.1010    -7.1620 c3         1 IG5      -0.046700
      6 C13        -25.4300    17.4020    -9.8970 c3         1 IG5      -0.104400
      7 C15        -23.3850    18.4900   -10.8260 c3         1 IG5      -0.100100
      8 C17        -23.1480    16.8450    -8.9660 c3         1 IG5      -0.100100
      9 C20        -32.5480    15.7290    -6.0610 c6         1 IG5      -0.072400
     10 C21        -31.0690    15.7630    -6.4220 c6         1 IG5      -0.071400
     11 C24        -35.5060    20.2520    -5.9730 c2         1 IG5      -0.104400
     12 C26        -37.5500    21.2180    -4.8890 c6         1 IG5       0.214500
     13 C28        -37.1410    22.5580    -5.4410 c2         1 IG5      -0.157400
     14 C12        -26.2860    16.9720    -8.7130 c3         1 IG5      -0.071400
     15 C14        -24.0320    17.9390    -9.5550 c3         1 IG5       0.184000
     16 C18        -32.4330    18.1610    -5.5830 c2         1 IG5      -0.088400
     17 C19        -32.9050    16.8330    -5.0680 c6         1 IG5      -0.044200
     18 C2         -30.5690    17.1320    -6.9200 c6         1 IG5      -0.023000
     19 C23        -34.6850    19.2270    -5.6930 ce         1 IG5      -0.170000
     20 C25        -36.9890    20.1200    -5.8000 c6         1 IG5      -0.056700
     21 C29        -35.6370    22.7120    -5.5540 c6         1 IG5       0.214500
     22 C3         -30.9380    18.1870    -5.8270 c6         1 IG5      -0.017500
     23 C31        -35.0790    21.6060    -6.4600 c6         1 IG5      -0.056700
     24 C32        -37.9860    23.4910    -5.8770 c2         1 IG5      -0.187200
     25 C33        -39.4840    23.4630    -5.8510 c3         1 IG5      -0.043200
     26 C34        -40.0840    24.6130    -5.0550 c3         1 IG5       0.164600
     27 C9         -28.5790    15.9190    -8.0700 c3         1 IG5      -0.054700
     28 O16        -24.1080    18.9600    -8.5680 oh         1 IG5      -0.659000
     29 O27        -37.0400    21.1190    -3.5730 oh         1 IG5      -0.658000
     30 O30        -35.2210    23.9450    -6.0850 oh         1 IG5      -0.658000
     31 O35        -39.7110    25.8380    -5.6480 oh         1 IG5      -0.662000
     32 H1         -30.7370    20.0260    -6.9770 hc         1 IG5       0.039700
     33 H2         -30.7930    20.2200    -5.2480 hc         1 IG5       0.039700
     34 H3         -28.4230    19.7790    -6.9890 hc         1 IG5       0.036200
     35 H4         -28.5930    20.6750    -5.5140 hc         1 IG5       0.036200
     36 H5         -28.5790    18.5550    -4.2020 hc         1 IG5       0.036700
     37 H6         -27.1080    18.8890    -5.0610 hc         1 IG5       0.036700
     38 H7         -28.5440    16.4630    -5.1520 hc         1 IG5       0.038700
     39 H8         -27.1740    16.9190    -6.1050 hc         1 IG5       0.038700
     40 H9         -28.8180    17.9980    -7.7510 hc         1 IG5       0.050700
     41 H10        -28.6940    14.3360    -6.5610 hc         1 IG5       0.031700
     42 H11        -27.8640    13.8810    -8.0420 hc         1 IG5       0.031700
     43 H12        -27.0580    14.8970    -6.8590 hc         1 IG5       0.031700
     44 H13        -25.9720    18.1740   -10.4600 hc         1 IG5       0.038700
     45 H14        -25.3110    16.5630   -10.5910 hc         1 IG5       0.038700
     46 H15        -23.9810    19.3050   -11.2450 hc         1 IG5       0.040867
     47 H16        -22.3830    18.8730   -10.6220 hc         1 IG5       0.040867
     48 H17        -23.2990    17.7180   -11.5920 hc         1 IG5       0.040867
     49 H18        -23.5500    16.4480    -8.0330 hc         1 IG5       0.040867
     50 H19        -23.0560    16.0160    -9.6680 hc         1 IG5       0.040867
     51 H20        -22.1450    17.2230    -8.7630 hc         1 IG5       0.040867
     52 H21        -33.1640    15.8350    -6.9580 hc         1 IG5       0.039200
     53 H22        -32.7970    14.7550    -5.6340 hc         1 IG5       0.039200
     54 H23        -30.8730    14.9960    -7.1750 hc         1 IG5       0.040700
     55 H24        -30.4940    15.4760    -5.5340 hc         1 IG5       0.040700
     56 H25        -32.7890    20.1030    -6.2400 ha         1 IG5       0.175000
     57 H26        -38.6420    21.1200    -4.8840 h1         1 IG5       0.045700
     58 H27        -32.3410    17.5380    -8.1460 hc         1 IG5       0.034033
     59 H28        -30.9270    18.4680    -8.6080 hc         1 IG5       0.034033
     60 H29        -31.0340    16.7650    -9.0220 hc         1 IG5       0.034033
     61 H30        -28.1370    17.1360    -9.7840 hc         1 IG5       0.034200
     62 H31        -27.4190    15.5430    -9.8420 hc         1 IG5       0.034200
     63 H32        -25.7520    16.2360    -8.1070 hc         1 IG5       0.047200
     64 H33        -26.4640    17.8330    -8.0650 hc         1 IG5       0.047200
     65 H34        -33.9730    16.8170    -4.8560 hc         1 IG5       0.044700
     66 H35        -32.3980    16.6260    -4.1180 hc         1 IG5       0.044700
     67 H36        -35.1610    18.3190    -5.3370 ha         1 IG5       0.164000
     68 H37        -37.4890    20.2140    -6.7710 hc         1 IG5       0.056450
     69 H38        -37.2530    19.1330    -5.4070 hc         1 IG5       0.056450
     70 H39        -35.2050    22.5660    -4.5540 h1         1 IG5       0.045700
     71 H40        -30.4970    17.8150    -4.8920 hc         1 IG5       0.055700
     72 H41        -33.9940    21.7040    -6.5130 hc         1 IG5       0.056450
     73 H42        -35.4710    21.7680    -7.4720 hc         1 IG5       0.056450
     74 H43        -37.5610    24.3910    -6.3080 ha         1 IG5       0.192000
     75 H44        -39.8720    22.5360    -5.4290 hc         1 IG5       0.052200
     76 H45        -39.8640    23.5140    -6.8770 hc         1 IG5       0.052200
     77 H46        -39.7390    24.5470    -4.0160 h1         1 IG5       0.020200
     78 H47        -41.1760    24.4940    -5.0370 h1         1 IG5       0.020200
     79 H48        -29.4630    15.5640    -8.6060 hc         1 IG5       0.045700
     80 H49        -24.6760    19.6600    -8.9060 ho         1 IG5       0.438000
     81 H50        -37.1270    20.2050    -3.2830 ho         1 IG5       0.445000
     82 H51        -35.4150    24.6340    -5.4420 ho         1 IG5       0.445000
     83 H52        -40.0250    26.5520    -5.0870 ho         1 IG5       0.442000
     84 C10        -28.0190    14.6990    -7.3360 c3         1 IG5      -0.086100
     85 C22        -33.2420    19.2000    -5.8490 ce         1 IG5      -0.192000
     86 C1         -31.2570    17.4940    -8.2410 c3         1 IG5      -0.086100
     87 C11        -27.6190    16.3870    -9.1720 c3         1 IG5      -0.074400
@<TRIPOS>BOND
     1     1     2 1   
     2     1    22 1   
     3     1    32 1   
     4     1    33 1   
     5     2     3 1   
     6     2    34 1   
     7     2    35 1   
     8     3     4 1   
     9     3    36 1   
    10     3    37 1   
    11     4     5 1   
    12     4    38 1   
    13     4    39 1   
    14     5    18 1   
    15     5    27 1   
    16     5    40 1   
    17     6    14 1   
    18     6    15 1   
    19     6    44 1   
    20     6    45 1   
    21     7    15 1   
    22     7    46 1   
    23     7    47 1   
    24     7    48 1   
    25     8    15 1   
    26     8    49 1   
    27     8    50 1   
    28     8    51 1   
    29     9    10 1   
    30     9    17 1   
    31     9    52 1   
    32     9    53 1   
    33    10    18 1   
    34    10    54 1   
    35    10    55 1   
    36    11    19 2   
    37    11    20 1   
    38    11    23 1   
    39    12    13 1   
    40    12    20 1   
    41    12    29 1   
    42    12    57 1   
    43    13    21 1   
    44    13    24 2   
    45    14    63 1   
    46    14    64 1   
    47    14    87 1   
    48    15    28 1   
    49    16    17 1   
    50    16    22 1   
    51    16    85 2   
    52    17    65 1   
    53    17    66 1   
    54    18    22 1   
    55    18    86 1   
    56    19    67 1   
    57    19    85 1   
    58    20    68 1   
    59    20    69 1   
    60    21    23 1   
    61    21    30 1   
    62    21    70 1   
    63    22    71 1   
    64    23    72 1   
    65    23    73 1   
    66    24    25 1   
    67    24    74 1   
    68    25    26 1   
    69    25    75 1   
    70    25    76 1   
    71    26    31 1   
    72    26    77 1   
    73    26    78 1   
    74    27    79 1   
    75    27    84 1   
    76    27    87 1   
    77    28    80 1   
    78    29    81 1   
    79    30    82 1   
    80    31    83 1   
    81    41    84 1   
    82    42    84 1   
    83    43    84 1   
    84    56    85 1   
    85    58    86 1   
    86    59    86 1   
    87    60    86 1   
    88    61    87 1   
    89    62    87 1   
@<TRIPOS>SUBSTRUCTURE
     1 IG5         1 TEMP              0 ****  ****    0 ROOT
