@<TRIPOS>MOLECULE
IG6
   46    49     1     0     0
SMALL
bcc


@<TRIPOS>ATOM
      1 C10         53.6300   -10.1390     9.7710 c3         1 IG6       0.760100
      2 C15         57.9150   -15.6390    11.6080 c3         1 IG6      -0.119700
      3 C16         57.1870   -16.7070    12.4240 c3         1 IG6      -0.094700
      4 C17         57.9860   -17.9560    12.5690 cc         1 IG6       0.399800
      5 C19         58.4930   -19.9960    13.1830 cc         1 IG6      -0.238600
      6 C20         59.5560   -19.4160    12.5400 cd         1 IG6       0.366800
      7 C23         60.8800   -19.9720    12.2690 ca         1 IG6      -0.102500
      8 C24         61.8450   -19.2090    11.6070 ca         1 IG6      -0.114000
      9 C25         63.1090   -19.7230    11.3580 ca         1 IG6      -0.132500
     10 C26         63.4380   -21.0100    11.7630 ca         1 IG6      -0.127000
     11 C27         62.4860   -21.7790    12.4210 ca         1 IG6      -0.132500
     12 C28         61.2220   -21.2670    12.6700 ca         1 IG6      -0.114000
     13 C1          56.5790   -12.3760    12.9490 cc         1 IG6      -0.031000
     14 C2          57.2630   -13.5440    12.8630 cd         1 IG6      -0.252300
     15 C3          57.1840   -14.3340    11.6730 cd         1 IG6       0.395600
     16 N4          56.4840   -13.9860    10.6360 nc         1 IG6      -0.470800
     17 C5          55.8080   -11.9930    11.8340 cc         1 IG6      -0.074300
     18 N6          55.8200   -12.8350    10.7420 na         1 IG6       0.183200
     19 C7          55.0260   -12.2950     9.7740 cc         1 IG6      -0.048300
     20 C8          54.5740   -11.1290    10.3540 cd         1 IG6      -0.084600
     21 N9          55.0480   -10.9470    11.6070 nd         1 IG6      -0.218600
     22 F12         53.7440    -8.9510    10.3640 f          1 IG6      -0.229967
     23 F13         53.8400    -9.9560     8.4610 f          1 IG6      -0.229967
     24 F14         52.3490   -10.5190     9.9030 f          1 IG6      -0.229967
     25 N18         57.5030   -19.0580    13.1920 na         1 IG6      -0.181900
     26 N21         59.2160   -18.1440    12.1640 nd         1 IG6      -0.673000
     27 H33         54.5510   -14.0060     8.5990 hc         1 IG6       0.063033
     28 H32         54.0290   -12.4790     7.8990 hc         1 IG6       0.063033
     29 H31         55.7310   -12.9300     7.8620 hc         1 IG6       0.063033
     30 H35         58.0080   -15.9590    10.5700 hc         1 IG6       0.084700
     31 H34         58.9250   -15.5010    11.9990 hc         1 IG6       0.084700
     32 H36         56.9490   -16.3210    13.4220 hc         1 IG6       0.053700
     33 H37         56.2240   -16.9290    11.9550 hc         1 IG6       0.053700
     34 H38         58.3540   -20.9680    13.6270 h4         1 IG6       0.177000
     35 H39         56.0940   -20.1940    14.2040 h1         1 IG6       0.054700
     36 H41         56.0340   -18.4640    14.5640 h1         1 IG6       0.054700
     37 H40         55.4150   -19.0710    13.0190 h1         1 IG6       0.054700
     38 H42         61.6010   -18.2040    11.2880 ha         1 IG6       0.135000
     39 H43         63.8420   -19.1130    10.8450 ha         1 IG6       0.129000
     40 H44         64.4260   -21.4100    11.5710 ha         1 IG6       0.129000
     41 H45         62.7270   -22.7840    12.7430 ha         1 IG6       0.129000
     42 H46         60.4970   -21.8860    13.1840 ha         1 IG6       0.135000
     43 H29         56.6100   -11.7440    13.8250 ha         1 IG6       0.170000
     44 H30         57.8770   -13.8920    13.6820 ha         1 IG6       0.157000
     45 C11         54.8220   -12.9590     8.4650 c3         1 IG6      -0.025900
     46 C22         56.1880   -19.2000    13.7760 c3         1 IG6       0.026600
@<TRIPOS>BOND
     1     1    20 1   
     2     1    22 1   
     3     1    23 1   
     4     1    24 1   
     5     2     3 1   
     6     2    15 1   
     7     2    30 1   
     8     2    31 1   
     9     3     4 1   
    10     3    32 1   
    11     3    33 1   
    12     4    25 1   
    13     4    26 2   
    14     5     6 2   
    15     5    25 1   
    16     5    34 1   
    17     6     7 1   
    18     6    26 1   
    19     7     8 ar  
    20     7    12 ar  
    21     8     9 ar  
    22     8    38 1   
    23     9    10 ar  
    24     9    39 1   
    25    10    11 ar  
    26    10    40 1   
    27    11    12 ar  
    28    11    41 1   
    29    12    42 1   
    30    13    14 2   
    31    13    17 1   
    32    13    43 1   
    33    14    15 1   
    34    14    44 1   
    35    15    16 2   
    36    16    18 1   
    37    17    18 1   
    38    17    21 2   
    39    18    19 1   
    40    19    20 2   
    41    19    45 1   
    42    20    21 1   
    43    25    46 1   
    44    27    45 1   
    45    28    45 1   
    46    29    45 1   
    47    35    46 1   
    48    36    46 1   
    49    37    46 1   
@<TRIPOS>SUBSTRUCTURE
     1 IG6         1 TEMP              0 ****  ****    0 ROOT
