@<TRIPOS>MOLECULE
IG6
   46    49     1     0     0
SMALL
No Charge or Current Charge


@<TRIPOS>ATOM
      1 C10         53.0580   -10.2190    10.4890 c3         1 IG6       0.396200
      2 C15         57.9980   -15.5480    11.0730 c3         1 IG6      -0.119700
      3 C16         57.8530   -16.3080    12.4130 c3         1 IG6      -0.094700
      4 C17         58.4230   -17.7030    12.3680 cc         1 IG6       0.399800
      5 C19         58.6000   -19.8940    12.0430 cc         1 IG6      -0.206000
      6 C20         59.7810   -19.3710    12.5110 cd         1 IG6       0.301500
      7 C23         61.0330   -20.1140    12.7810 ca         1 IG6      -0.102500
      8 C24         62.1820   -19.4460    13.2630 ca         1 IG6      -0.096000
      9 C25         63.3700   -20.1540    13.5190 ca         1 IG6      -0.114500
     10 C26         63.4270   -21.5380    13.2960 ca         1 IG6      -0.109000
     11 C27         62.2940   -22.2140    12.8180 ca         1 IG6      -0.114500
     12 C28         61.1050   -21.5090    12.5610 ca         1 IG6      -0.096000
     13 C1          57.6320   -11.7980    11.6040 cc         1 IG6      -0.013000
     14 C2          58.2030   -13.0460    11.5620 cd         1 IG6      -0.169000
     15 C3          57.3990   -14.1650    11.1210 cd         1 IG6       0.330300
     16 N4          56.1120   -14.0980    10.7420 nc         1 IG6      -0.470800
     17 C5          56.2750   -11.6990    11.2080 cc         1 IG6      -0.125000
     18 N6          55.5990   -12.8160    10.8080 na         1 IG6       0.233900
     19 C7          54.3090   -12.5000    10.4730 cc         1 IG6      -0.048300
     20 C8          54.2550   -11.1330    10.6930 cd         1 IG6      -0.084600
     21 N9          55.4810   -10.6480    11.1490 nd         1 IG6      -0.218600
     22 F12         53.3300    -8.9270    10.7880 f          1 IG6      -0.108667
     23 F13         52.6290   -10.2420     9.2060 f          1 IG6      -0.108667
     24 F14         52.0130   -10.5890    11.2630 f          1 IG6      -0.108667
     25 N18         57.7330   -18.8270    11.9500 na         1 IG6      -0.160500
     26 N21         59.6630   -18.0100    12.7080 nd         1 IG6      -0.673000
     27 H33         53.0860   -14.2580    10.7300 hc         1 IG6       0.063033
     28 H32         52.3030   -12.9710     9.7990 hc         1 IG6       0.063033
     29 H31         53.5770   -13.9500     9.0540 hc         1 IG6       0.063033
     30 H35         57.5320   -16.1340    10.2710 hc         1 IG6       0.084700
     31 H34         59.0610   -15.4800    10.8140 hc         1 IG6       0.084700
     32 H36         58.3530   -15.7370    13.2040 hc         1 IG6       0.053700
     33 H37         56.7930   -16.3500    12.6940 hc         1 IG6       0.053700
     34 H38         58.3230   -20.9060    11.7790 h4         1 IG6       0.159000
     35 H39         56.0900   -19.9040    11.1690 h1         1 IG6       0.054700
     36 H41         55.6670   -18.5940    12.3090 h1         1 IG6       0.054700
     37 H40         56.1960   -18.1990    10.6450 h1         1 IG6       0.054700
     38 H42         62.1610   -18.3740    13.4430 ha         1 IG6       0.117000
     39 H43         64.2460   -19.6270    13.8900 ha         1 IG6       0.111000
     40 H44         64.3460   -22.0850    13.4940 ha         1 IG6       0.111000
     41 H45         62.3360   -23.2880    12.6440 ha         1 IG6       0.111000
     42 H46         60.2430   -22.0570    12.1910 ha         1 IG6       0.117000
     43 H29         58.1810   -10.9180    11.9250 ha         1 IG6       0.152000
     44 H30         59.2370   -13.1900    11.8550 ha         1 IG6       0.139000
     45 C11         53.2600   -13.4700     9.9870 c3         1 IG6      -0.025900
     46 C22         56.3360   -18.8850    11.4900 c3         1 IG6       0.055900
@<TRIPOS>BOND
     1     1    20 1   
     2     1    22 1   
     3     1    23 1   
     4     1    24 1   
     5     2     3 1   
     6     2    15 1   
     7     2    30 1   
     8     2    31 1   
     9     3     4 1   
    10     3    32 1   
    11     3    33 1   
    12     4    25 1   
    13     4    26 2   
    14     5     6 2   
    15     5    25 1   
    16     5    34 1   
    17     6     7 1   
    18     6    26 1   
    19     7     8 ar  
    20     7    12 ar  
    21     8     9 ar  
    22     8    38 1   
    23     9    10 ar  
    24     9    39 1   
    25    10    11 ar  
    26    10    40 1   
    27    11    12 ar  
    28    11    41 1   
    29    12    42 1   
    30    13    14 2   
    31    13    17 1   
    32    13    43 1   
    33    14    15 1   
    34    14    44 1   
    35    15    16 2   
    36    16    18 1   
    37    17    18 1   
    38    17    21 2   
    39    18    19 1   
    40    19    20 2   
    41    19    45 1   
    42    20    21 1   
    43    25    46 1   
    44    27    45 1   
    45    28    45 1   
    46    29    45 1   
    47    35    46 1   
    48    36    46 1   
    49    37    46 1   
@<TRIPOS>SUBSTRUCTURE
     1 IG6         1 TEMP              0 ****  ****    0 ROOT
