@<TRIPOS>MOLECULE
IG7
  167   166     1     0     0
SMALL
abcg2


@<TRIPOS>ATOM
      1 N01          8.8160    15.5090    -7.2430 ns         1 IG7      -0.500900
      2 C02          9.3510    16.6770    -7.6440 c          1 IG7       0.607100
      3 C03          8.4050    17.6810    -8.2680 c3         1 IG7      -0.155400
      4 C04          8.4450    19.0500    -7.5720 c3         1 IG7      -0.067400
      5 C05          7.5150    19.1980    -6.3670 c3         1 IG7      -0.078400
      6 C06          7.7470    18.1990    -5.2410 c3         1 IG7      -0.077400
      7 C07          6.7770    18.3310    -4.0710 c3         1 IG7      -0.072400
      8 C08          6.9280    19.6000    -3.2390 c3         1 IG7      -0.074400
      9 C09          6.1060    19.5370    -1.9550 c3         1 IG7      -0.076400
     10 C10          6.2980    20.7220    -1.0150 c3         1 IG7      -0.075400
     11 C11          5.5480    20.5530     0.3020 c3         1 IG7      -0.074400
     12 C12          5.9480    21.5550     1.3780 c3         1 IG7      -0.077400
     13 C13          5.1960    21.3500     2.6870 c3         1 IG7      -0.075400
     14 C14          5.7220    22.2200     3.8240 c3         1 IG7      -0.076400
     15 C15          4.9490    22.0990     5.1430 c3         1 IG7      -0.071400
     16 C16          5.5040    21.0860     6.1450 c3         1 IG7      -0.074400
     17 C17          5.5410    19.6420     5.6650 c3         1 IG7      -0.088100
     18 O18         10.5500    16.9160    -7.5470 o          1 IG7      -0.632100
     19 C19         10.0140    16.5510    -1.8360 c3         1 IG7       0.148600
     20 O20          9.8720    17.9530    -1.6420 os         1 IG7      -0.451100
     21 C21         10.3260    18.5130    -0.5190 c          1 IG7       0.600100
     22 C22         10.2640    20.0110    -0.6070 c3         1 IG7      -0.143400
     23 C23         10.1040    20.7200     0.7280 c3         1 IG7      -0.067400
     24 C24         10.0310    22.2270     0.5170 c3         1 IG7      -0.078400
     25 C25          9.7410    23.0300     1.7760 c3         1 IG7      -0.076400
     26 C26         10.8300    22.9590     2.8410 c3         1 IG7      -0.074400
     27 C27         10.5920    23.9170     4.0040 c3         1 IG7      -0.073400
     28 C28          9.3330    23.6060     4.7990 c3         1 IG7      -0.079400
     29 C29          9.1180    24.5320     5.9860 c3         1 IG7      -0.074400
     30 C30          7.8460    24.2020     6.7520 c3         1 IG7      -0.078400
     31 C31          7.6290    25.0700     7.9810 c3         1 IG7      -0.076400
     32 C32          6.3620    24.7060     8.7440 c3         1 IG7      -0.074400
     33 C33          6.1460    25.5360    10.0040 c3         1 IG7      -0.073400
     34 C34          7.1890    25.2870    11.0870 c3         1 IG7      -0.075400
     35 C35          6.9000    26.0190    12.3910 c3         1 IG7      -0.074400
     36 O36         10.7780    17.8840     0.4030 o          1 IG7      -0.481000
     37 C37          6.9430    27.5340    12.2460 c3         1 IG7      -0.090100
     38 C38          9.4710    14.5180    -6.4030 c3         1 IG7       0.040700
     39 C39         10.2350    15.1640    -5.2360 c3         1 IG7       0.053600
     40 S40         10.2820    14.0220    -3.8220 ss         1 IG7      -0.422000
     41 C41         11.5640    14.7580    -2.7650 c3         1 IG7       0.057600
     42 C42         11.4030    16.2170    -2.3550 c3         1 IG7       0.142300
     43 O43         11.6700    17.0280    -3.5000 os         1 IG7      -0.461100
     44 C44         12.3990    18.1400    -3.4060 c          1 IG7       0.605100
     45 C45         12.5040    18.8240    -4.7410 c3         1 IG7      -0.139400
     46 C46         11.5670    20.0390    -4.8510 c3         1 IG7      -0.068400
     47 C47         12.1120    21.3170    -4.2210 c3         1 IG7      -0.078400
     48 C48         11.1820    22.5120    -4.4290 c3         1 IG7      -0.075400
     49 C49         10.0060    22.5690    -3.4590 c3         1 IG7      -0.079400
     50 C50          8.9160    23.5340    -3.9140 c3         1 IG7      -0.073400
     51 C51          7.9050    23.9080    -2.8290 c3         1 IG7      -0.075400
     52 C52          8.4060    24.9830    -1.8720 c3         1 IG7      -0.077400
     53 C53          7.4250    25.3160    -0.7510 c3         1 IG7      -0.076400
     54 C54          7.8790    26.5060     0.0890 c3         1 IG7      -0.074400
     55 C55          6.9420    26.8810     1.2350 c3         1 IG7      -0.073400
     56 C56          6.9230    25.8750     2.3800 c3         1 IG7      -0.076400
     57 C57          5.9560    26.2240     3.5100 c3         1 IG7      -0.075400
     58 C58          6.3560    27.4410     4.3410 c3         1 IG7      -0.075400
     59 C59          5.3890    27.7160     5.4870 c3         1 IG7      -0.090100
     60 C60         10.3630    13.5470    -7.1850 c          1 IG7       0.598100
     61 N61         11.3340    14.1210    -7.9040 nt         1 IG7      -0.604000
     62 O62         10.1850    12.3410    -7.1150 o          1 IG7      -0.599100
     63 O63         12.9020    18.5300    -2.3830 o          1 IG7      -0.488000
     64 H1           7.8290    15.3700    -7.3900 hn         1 IG7       0.321500
     65 H2           8.7280    17.8040    -9.3050 hc         1 IG7       0.061700
     66 H3           7.3790    17.3070    -8.3020 hc         1 IG7       0.061700
     67 H4           9.4750    19.2780    -7.2840 hc         1 IG7       0.053200
     68 H5           8.1660    19.8030    -8.3120 hc         1 IG7       0.053200
     69 H6           7.6180    20.2180    -5.9850 hc         1 IG7       0.041200
     70 H7           6.4780    19.1080    -6.7090 hc         1 IG7       0.041200
     71 H8           7.6440    17.1870    -5.6360 hc         1 IG7       0.038200
     72 H9           8.7750    18.2820    -4.8710 hc         1 IG7       0.038200
     73 H10          5.7490    18.2500    -4.4410 hc         1 IG7       0.037700
     74 H11          6.9240    17.4690    -3.4110 hc         1 IG7       0.037700
     75 H12          7.9870    19.7350    -2.9860 hc         1 IG7       0.039700
     76 H13          6.6420    20.4800    -3.8220 hc         1 IG7       0.039700
     77 H14          5.0450    19.4360    -2.2080 hc         1 IG7       0.037200
     78 H15          6.3740    18.6210    -1.4160 hc         1 IG7       0.037200
     79 H16          7.3700    20.8390    -0.8080 hc         1 IG7       0.036700
     80 H17          5.9850    21.6490    -1.5060 hc         1 IG7       0.036700
     81 H18          4.4700    20.6190     0.1170 hc         1 IG7       0.037700
     82 H19          5.7260    19.5430     0.6860 hc         1 IG7       0.037700
     83 H20          7.0250    21.4660     1.5580 hc         1 IG7       0.037200
     84 H21          5.7940    22.5790     1.0210 hc         1 IG7       0.037200
     85 H22          4.1330    21.5680     2.5320 hc         1 IG7       0.038200
     86 H23          5.2470    20.2940     2.9640 hc         1 IG7       0.038200
     87 H24          6.7820    21.9940     3.9940 hc         1 IG7       0.037700
     88 H25          5.6970    23.2620     3.4870 hc         1 IG7       0.037700
     89 H26          4.9350    23.0740     5.6380 hc         1 IG7       0.036200
     90 H27          3.9010    21.8620     4.9300 hc         1 IG7       0.036200
     91 H28          6.5140    21.3940     6.4320 hc         1 IG7       0.035200
     92 H29          4.9050    21.1410     7.0580 hc         1 IG7       0.035200
     93 H30          5.8620    18.9750     6.4660 hc         1 IG7       0.031700
     94 H31          4.5570    19.3070     5.3300 hc         1 IG7       0.031700
     95 H32          6.2360    19.5060     4.8360 hc         1 IG7       0.031700
     96 H33          9.2520    16.2860    -2.5680 h1         1 IG7       0.077700
     97 H34          9.8160    15.9900    -0.9200 h1         1 IG7       0.077700
     98 H35         11.1970    20.3340    -1.0840 hc         1 IG7       0.075200
     99 H36          9.4700    20.3020    -1.2950 hc         1 IG7       0.075200
    100 H37          9.1900    20.3790     1.2250 hc         1 IG7       0.055200
    101 H38         10.9340    20.4660     1.3890 hc         1 IG7       0.055200
    102 H39         10.9650    22.5750     0.0620 hc         1 IG7       0.038700
    103 H40          9.2440    22.4360    -0.2140 hc         1 IG7       0.038700
    104 H41          9.5980    24.0780     1.4910 hc         1 IG7       0.040200
    105 H42          8.7820    22.7020     2.1920 hc         1 IG7       0.040200
    106 H43         10.9140    21.9380     3.2290 hc         1 IG7       0.041200
    107 H44         11.7960    23.1890     2.3790 hc         1 IG7       0.041200
    108 H45         11.4560    23.8900     4.6760 hc         1 IG7       0.037200
    109 H46         10.5370    24.9430     3.6260 hc         1 IG7       0.037200
    110 H47          8.4560    23.6680     4.1480 hc         1 IG7       0.038700
    111 H48          9.3740    22.5690     5.1520 hc         1 IG7       0.038700
    112 H49          9.9800    24.4740     6.6610 hc         1 IG7       0.037200
    113 H50          9.0750    25.5690     5.6360 hc         1 IG7       0.037200
    114 H51          6.9850    24.2970     6.0800 hc         1 IG7       0.037200
    115 H52          7.8740    23.1510     7.0570 hc         1 IG7       0.037200
    116 H53          8.5020    24.9820     8.6350 hc         1 IG7       0.038700
    117 H54          7.5790    26.1230     7.6820 hc         1 IG7       0.038700
    118 H55          5.5010    24.8290     8.0790 hc         1 IG7       0.036200
    119 H56          6.3890    23.6420     9.0080 hc         1 IG7       0.036200
    120 H57          6.1300    26.5960     9.7310 hc         1 IG7       0.037700
    121 H58          5.1550    25.3130    10.4120 hc         1 IG7       0.037700
    122 H59          7.2440    24.2100    11.2820 hc         1 IG7       0.037700
    123 H60          8.1810    25.5790    10.7280 hc         1 IG7       0.037700
    124 H61          7.6300    25.7090    13.1440 hc         1 IG7       0.036700
    125 H62          5.9210    25.7140    12.7740 hc         1 IG7       0.036700
    126 H63          6.8140    28.0300    13.2090 hc         1 IG7       0.031033
    127 H64          7.9000    27.8590    11.8320 hc         1 IG7       0.031033
    128 H65          6.1610    27.8990    11.5790 hc         1 IG7       0.031033
    129 H66          8.6560    13.9140    -6.0020 h1         1 IG7       0.087700
    130 H67         11.2520    15.4240    -5.5140 h1         1 IG7       0.083200
    131 H68          9.7200    16.0730    -4.9380 h1         1 IG7       0.083200
    132 H69         11.5550    14.1420    -1.8630 h1         1 IG7       0.084700
    133 H70         12.5440    14.6280    -3.2270 h1         1 IG7       0.084700
    134 H71         12.1500    16.4160    -1.5810 h1         1 IG7       0.089700
    135 H72         12.2680    18.1130    -5.5340 hc         1 IG7       0.079200
    136 H73         13.5370    19.1470    -4.8860 hc         1 IG7       0.079200
    137 H74         11.4000    20.2240    -5.9150 hc         1 IG7       0.048700
    138 H75         10.5860    19.7910    -4.4350 hc         1 IG7       0.048700
    139 H76         12.2960    21.1740    -3.1520 hc         1 IG7       0.046700
    140 H77         13.0860    21.5310    -4.6720 hc         1 IG7       0.046700
    141 H78         11.7530    23.4400    -4.3350 hc         1 IG7       0.038200
    142 H79         10.8100    22.4980    -5.4590 hc         1 IG7       0.038200
    143 H80          9.5620    21.5750    -3.3370 hc         1 IG7       0.038700
    144 H81         10.3840    22.8520    -2.4720 hc         1 IG7       0.038700
    145 H82          9.3770    24.4500    -4.3010 hc         1 IG7       0.036700
    146 H83          8.3950    23.0830    -4.7640 hc         1 IG7       0.036700
    147 H84          6.9840    24.2670    -3.3010 hc         1 IG7       0.038200
    148 H85          7.6210    23.0120    -2.2660 hc         1 IG7       0.038200
    149 H86          9.3610    24.6810    -1.4350 hc         1 IG7       0.037700
    150 H87          8.6150    25.8920    -2.4480 hc         1 IG7       0.037700
    151 H88          6.4410    25.5340    -1.1800 hc         1 IG7       0.037700
    152 H89          7.2870    24.4330    -0.1160 hc         1 IG7       0.037700
    153 H90          8.8790    26.3050     0.4900 hc         1 IG7       0.036700
    154 H91          7.9900    27.3710    -0.5730 hc         1 IG7       0.036700
    155 H92          7.2370    27.8620     1.6170 hc         1 IG7       0.038200
    156 H93          5.9240    27.0050     0.8470 hc         1 IG7       0.038200
    157 H94          6.6600    24.8880     1.9860 hc         1 IG7       0.038700
    158 H95          7.9360    25.7720     2.7880 hc         1 IG7       0.038700
    159 H96          5.8720    25.3630     4.1830 hc         1 IG7       0.037200
    160 H97          4.9530    26.3790     3.0980 hc         1 IG7       0.037200
    161 H98          7.3620    27.2810     4.7440 hc         1 IG7       0.036700
    162 H99          6.4230    28.3280     3.7050 hc         1 IG7       0.036700
    163 H100         5.7050    28.5760     6.0790 hc         1 IG7       0.031033
    164 H101         4.3830    27.9210     5.1160 hc         1 IG7       0.031033
    165 H102         5.3210    26.8610     6.1640 hc         1 IG7       0.031033
    166 H103        11.9750    13.5530    -8.4340 hn         1 IG7       0.327500
    167 H104        11.4660    15.1230    -7.9060 hn         1 IG7       0.327500
@<TRIPOS>BOND
     1     1     2 1   
     2     1    38 1   
     3     1    64 1   
     4     2     3 1   
     5     2    18 2   
     6     3     4 1   
     7     3    65 1   
     8     3    66 1   
     9     4     5 1   
    10     4    67 1   
    11     4    68 1   
    12     5     6 1   
    13     5    69 1   
    14     5    70 1   
    15     6     7 1   
    16     6    71 1   
    17     6    72 1   
    18     7     8 1   
    19     7    73 1   
    20     7    74 1   
    21     8     9 1   
    22     8    75 1   
    23     8    76 1   
    24     9    10 1   
    25     9    77 1   
    26     9    78 1   
    27    10    11 1   
    28    10    79 1   
    29    10    80 1   
    30    11    12 1   
    31    11    81 1   
    32    11    82 1   
    33    12    13 1   
    34    12    83 1   
    35    12    84 1   
    36    13    14 1   
    37    13    85 1   
    38    13    86 1   
    39    14    15 1   
    40    14    87 1   
    41    14    88 1   
    42    15    16 1   
    43    15    89 1   
    44    15    90 1   
    45    16    17 1   
    46    16    91 1   
    47    16    92 1   
    48    17    93 1   
    49    17    94 1   
    50    17    95 1   
    51    19    20 1   
    52    19    42 1   
    53    19    96 1   
    54    19    97 1   
    55    20    21 1   
    56    21    22 1   
    57    21    36 2   
    58    22    23 1   
    59    22    98 1   
    60    22    99 1   
    61    23    24 1   
    62    23   100 1   
    63    23   101 1   
    64    24    25 1   
    65    24   102 1   
    66    24   103 1   
    67    25    26 1   
    68    25   104 1   
    69    25   105 1   
    70    26    27 1   
    71    26   106 1   
    72    26   107 1   
    73    27    28 1   
    74    27   108 1   
    75    27   109 1   
    76    28    29 1   
    77    28   110 1   
    78    28   111 1   
    79    29    30 1   
    80    29   112 1   
    81    29   113 1   
    82    30    31 1   
    83    30   114 1   
    84    30   115 1   
    85    31    32 1   
    86    31   116 1   
    87    31   117 1   
    88    32    33 1   
    89    32   118 1   
    90    32   119 1   
    91    33    34 1   
    92    33   120 1   
    93    33   121 1   
    94    34    35 1   
    95    34   122 1   
    96    34   123 1   
    97    35    37 1   
    98    35   124 1   
    99    35   125 1   
   100    37   126 1   
   101    37   127 1   
   102    37   128 1   
   103    38    39 1   
   104    38    60 1   
   105    38   129 1   
   106    39    40 1   
   107    39   130 1   
   108    39   131 1   
   109    40    41 1   
   110    41    42 1   
   111    41   132 1   
   112    41   133 1   
   113    42    43 1   
   114    42   134 1   
   115    43    44 1   
   116    44    45 1   
   117    44    63 2   
   118    45    46 1   
   119    45   135 1   
   120    45   136 1   
   121    46    47 1   
   122    46   137 1   
   123    46   138 1   
   124    47    48 1   
   125    47   139 1   
   126    47   140 1   
   127    48    49 1   
   128    48   141 1   
   129    48   142 1   
   130    49    50 1   
   131    49   143 1   
   132    49   144 1   
   133    50    51 1   
   134    50   145 1   
   135    50   146 1   
   136    51    52 1   
   137    51   147 1   
   138    51   148 1   
   139    52    53 1   
   140    52   149 1   
   141    52   150 1   
   142    53    54 1   
   143    53   151 1   
   144    53   152 1   
   145    54    55 1   
   146    54   153 1   
   147    54   154 1   
   148    55    56 1   
   149    55   155 1   
   150    55   156 1   
   151    56    57 1   
   152    56   157 1   
   153    56   158 1   
   154    57    58 1   
   155    57   159 1   
   156    57   160 1   
   157    58    59 1   
   158    58   161 1   
   159    58   162 1   
   160    59   163 1   
   161    59   164 1   
   162    59   165 1   
   163    60    61 1   
   164    60    62 2   
   165    61   166 1   
   166    61   167 1   
@<TRIPOS>SUBSTRUCTURE
     1 IG7         1 TEMP              0 ****  ****    0 ROOT
