@<TRIPOS>MOLECULE
IG7
  167   166     1     0     0
SMALL
No Charge or Current Charge


@<TRIPOS>ATOM
      1 N01          8.9890    14.9870    -7.4550 ns         1 IG7      -0.500900
      2 C02          9.4070    16.1590    -8.0520 c          1 IG7       0.607100
      3 C03          8.2910    17.0470    -8.6160 c3         1 IG7      -0.155400
      4 C04          8.1690    18.4160    -7.8860 c3         1 IG7      -0.067400
      5 C05          7.3370    18.4310    -6.5750 c3         1 IG7      -0.078400
      6 C06          7.9060    17.5730    -5.4200 c3         1 IG7      -0.077400
      7 C07          7.1220    17.6550    -4.0920 c3         1 IG7      -0.072400
      8 C08          7.2010    19.0170    -3.3680 c3         1 IG7      -0.074400
      9 C09          6.5140    18.9840    -1.9890 c3         1 IG7      -0.076400
     10 C10          6.5220    20.3460    -1.2660 c3         1 IG7      -0.075400
     11 C11          5.8980    20.2630     0.1420 c3         1 IG7      -0.074400
     12 C12          5.8400    21.6190     0.8730 c3         1 IG7      -0.077400
     13 C13          5.2820    21.4880     2.3070 c3         1 IG7      -0.075400
     14 C14          5.2930    22.8180     3.0880 c3         1 IG7      -0.076400
     15 C15          4.5800    22.7940     4.4640 c3         1 IG7      -0.071400
     16 C16          5.1630    21.8130     5.5140 c3         1 IG7      -0.074400
     17 C17          4.5270    20.4060     5.5110 c3         1 IG7      -0.088100
     18 O18         10.5890    16.4490    -8.1600 o          1 IG7      -0.632100
     19 C19         10.6370    16.5250    -2.0470 c3         1 IG7       0.148600
     20 O20         10.3320    17.9010    -1.7190 os         1 IG7      -0.451100
     21 C21         11.1230    18.5650    -0.8190 c          1 IG7       0.600100
     22 C22         10.7820    20.0550    -0.7590 c3         1 IG7      -0.143400
     23 C23         10.2300    20.4840     0.6200 c3         1 IG7      -0.067400
     24 C24          9.9460    22.0010     0.6860 c3         1 IG7      -0.078400
     25 C25          9.5520    22.5310     2.0840 c3         1 IG7      -0.076400
     26 C26         10.6740    22.4180     3.1450 c3         1 IG7      -0.074400
     27 C27         10.4790    23.3350     4.3750 c3         1 IG7      -0.073400
     28 C28          9.1700    23.0960     5.1600 c3         1 IG7      -0.079400
     29 C29          9.0280    24.0350     6.3760 c3         1 IG7      -0.074400
     30 C30          7.6470    23.9340     7.0560 c3         1 IG7      -0.078400
     31 C31          7.4840    24.9000     8.2480 c3         1 IG7      -0.076400
     32 C32          6.0670    24.8520     8.8650 c3         1 IG7      -0.074400
     33 C33          5.8210    25.8980     9.9780 c3         1 IG7      -0.073400
     34 C34          6.6900    25.7000    11.2450 c3         1 IG7      -0.075400
     35 C35          6.3410    26.6550    12.4100 c3         1 IG7      -0.074400
     36 O36         12.0170    18.0460    -0.1630 o          1 IG7      -0.481000
     37 C37          6.6110    28.1450    12.1140 c3         1 IG7      -0.090100
     38 C38          9.8180    14.0960    -6.5930 c3         1 IG7       0.040700
     39 C39         10.6570    14.9100    -5.5780 c3         1 IG7       0.053600
     40 S40         11.0390    13.9490    -4.0430 ss         1 IG7      -0.422000
     41 C41         12.3730    15.0050    -3.2740 c3         1 IG7       0.057600
     42 C42         11.9500    16.4510    -2.8850 c3         1 IG7       0.142300
     43 O43         11.7690    17.2130    -4.1010 os         1 IG7      -0.461100
     44 C44         12.2340    18.5020    -4.1730 c          1 IG7       0.605100
     45 C45         11.8120    19.1770    -5.4800 c3         1 IG7      -0.139400
     46 C46         10.7520    20.2880    -5.2640 c3         1 IG7      -0.068400
     47 C47         11.3400    21.6330    -4.7710 c3         1 IG7      -0.078400
     48 C48         10.2970    22.7720    -4.6800 c3         1 IG7      -0.075400
     49 C49          9.4280    22.7610    -3.4010 c3         1 IG7      -0.079400
     50 C50          8.2910    23.8110    -3.4620 c3         1 IG7      -0.073400
     51 C51          7.6200    24.1350    -2.1060 c3         1 IG7      -0.075400
     52 C52          8.4750    25.0430    -1.1890 c3         1 IG7      -0.077400
     53 C53          7.7230    25.5060     0.0780 c3         1 IG7      -0.076400
     54 C54          8.5650    26.4530     0.9690 c3         1 IG7      -0.074400
     55 C55          7.7830    27.1080     2.1340 c3         1 IG7      -0.073400
     56 C56          7.2480    26.1110     3.1880 c3         1 IG7      -0.076400
     57 C57          6.4020    26.7520     4.3130 c3         1 IG7      -0.075400
     58 C58          7.1840    27.6990     5.2520 c3         1 IG7      -0.075400
     59 C59          6.3160    28.2530     6.3980 c3         1 IG7      -0.090100
     60 C60         10.7050    13.1350    -7.4330 c          1 IG7       0.598100
     61 N61         11.4150    13.6870    -8.4430 nt         1 IG7      -0.604000
     62 O62         10.7400    11.9280    -7.2590 o          1 IG7      -0.599100
     63 O63         12.9370    19.0390    -3.3290 o          1 IG7      -0.488000
     64 H1           7.9900    14.8140    -7.4820 hn         1 IG7       0.321500
     65 H2           8.5400    17.2520    -9.6630 hc         1 IG7       0.061700
     66 H3           7.3260    16.5280    -8.5780 hc         1 IG7       0.061700
     67 H4           9.1700    18.8190    -7.6920 hc         1 IG7       0.053200
     68 H5           7.6940    19.1220    -8.5800 hc         1 IG7       0.053200
     69 H6           7.2640    19.4730    -6.2420 hc         1 IG7       0.041200
     70 H7           6.3130    18.1040    -6.7960 hc         1 IG7       0.041200
     71 H8           7.8870    16.5240    -5.7240 hc         1 IG7       0.038200
     72 H9           8.9540    17.8390    -5.2410 hc         1 IG7       0.038200
     73 H10          6.0700    17.4030    -4.2790 hc         1 IG7       0.037700
     74 H11          7.5120    16.8800    -3.4210 hc         1 IG7       0.037700
     75 H12          8.2520    19.2920    -3.2280 hc         1 IG7       0.039700
     76 H13          6.7380    19.7960    -3.9850 hc         1 IG7       0.039700
     77 H14          5.4760    18.6500    -2.1110 hc         1 IG7       0.037200
     78 H15          7.0170    18.2400    -1.3590 hc         1 IG7       0.037200
     79 H16          7.5540    20.7060    -1.1830 hc         1 IG7       0.036700
     80 H17          5.9700    21.0780    -1.8680 hc         1 IG7       0.036700
     81 H18          4.8810    19.8560     0.0640 hc         1 IG7       0.037700
     82 H19          6.4790    19.5540     0.7450 hc         1 IG7       0.037700
     83 H20          6.8440    22.0530     0.9110 hc         1 IG7       0.037200
     84 H21          5.2140    22.3150     0.3010 hc         1 IG7       0.037200
     85 H22          4.2580    21.0980     2.2630 hc         1 IG7       0.038200
     86 H23          5.8910    20.7540     2.8480 hc         1 IG7       0.038200
     87 H24          6.3340    23.1280     3.2320 hc         1 IG7       0.037700
     88 H25          4.8190    23.5920     2.4720 hc         1 IG7       0.037700
     89 H26          4.6400    23.8070     4.8800 hc         1 IG7       0.036200
     90 H27          3.5120    22.5920     4.3210 hc         1 IG7       0.036200
     91 H28          6.2480    21.7270     5.3800 hc         1 IG7       0.035200
     92 H29          5.0080    22.2450     6.5100 hc         1 IG7       0.035200
     93 H30          4.9670    19.7930     6.3060 hc         1 IG7       0.031700
     94 H31          3.4470    20.4710     5.6910 hc         1 IG7       0.031700
     95 H32          4.6860    19.8870     4.5610 hc         1 IG7       0.031700
     96 H33          9.8160    16.0980    -2.6370 h1         1 IG7       0.077700
     97 H34         10.7400    15.9170    -1.1390 h1         1 IG7       0.077700
     98 H35         11.7020    20.6150    -0.9580 hc         1 IG7       0.075200
     99 H36         10.0470    20.2920    -1.5350 hc         1 IG7       0.075200
    100 H37          9.3090    19.9290     0.8390 hc         1 IG7       0.055200
    101 H38         10.9610    20.2110     1.3910 hc         1 IG7       0.055200
    102 H39         10.8280    22.5530     0.3380 hc         1 IG7       0.038700
    103 H40          9.1390    22.2350    -0.0180 hc         1 IG7       0.038700
    104 H41          9.2680    23.5840     1.9800 hc         1 IG7       0.040200
    105 H42          8.6610    21.9980     2.4380 hc         1 IG7       0.040200
    106 H43         10.7550    21.3770     3.4820 hc         1 IG7       0.041200
    107 H44         11.6340    22.6740     2.6820 hc         1 IG7       0.041200
    108 H45         11.3310    23.1970     5.0520 hc         1 IG7       0.037200
    109 H46         10.5110    24.3810     4.0420 hc         1 IG7       0.037200
    110 H47          8.3150    23.2530     4.4940 hc         1 IG7       0.038700
    111 H48          9.1280    22.0530     5.4970 hc         1 IG7       0.038700
    112 H49          9.8130    23.8050     7.1070 hc         1 IG7       0.037200
    113 H50          9.1880    25.0700     6.0500 hc         1 IG7       0.037200
    114 H51          6.8710    24.1530     6.3130 hc         1 IG7       0.037200
    115 H52          7.4850    22.9050     7.3990 hc         1 IG7       0.037200
    116 H53          8.2290    24.6470     9.0110 hc         1 IG7       0.038700
    117 H54          7.6990    25.9230     7.9160 hc         1 IG7       0.038700
    118 H55          5.3300    25.0190     8.0700 hc         1 IG7       0.036200
    119 H56          5.8760    23.8480     9.2620 hc         1 IG7       0.036200
    120 H57          5.9940    26.9000     9.5660 hc         1 IG7       0.037700
    121 H58          4.7630    25.8550    10.2650 hc         1 IG7       0.037700
    122 H59          6.5710    24.6670    11.5970 hc         1 IG7       0.037700
    123 H60          7.7500    25.8260    10.9920 hc         1 IG7       0.037700
    124 H61          6.9300    26.3630    13.2880 hc         1 IG7       0.036700
    125 H62          5.2860    26.5270    12.6850 hc         1 IG7       0.036700
    126 H63          6.4200    28.7510    13.0080 hc         1 IG7       0.031033
    127 H64          7.6550    28.2990    11.8140 hc         1 IG7       0.031033
    128 H65          5.9610    28.5140    11.3120 hc         1 IG7       0.031033
    129 H66          9.1230    13.4640    -6.0250 h1         1 IG7       0.087700
    130 H67         11.5910    15.2500    -6.0430 h1         1 IG7       0.083200
    131 H68         10.0880    15.7950    -5.2750 h1         1 IG7       0.083200
    132 H69         12.7240    14.4930    -2.3680 h1         1 IG7       0.084700
    133 H70         13.2260    15.0590    -3.9640 h1         1 IG7       0.084700
    134 H71         12.7800    16.8510    -2.2880 h1         1 IG7       0.089700
    135 H72         11.3780    18.4180    -6.1410 hc         1 IG7       0.079200
    136 H73         12.6970    19.6070    -5.9620 hc         1 IG7       0.079200
    137 H74         10.2420    20.4660    -6.2180 hc         1 IG7       0.048700
    138 H75          9.9900    19.9360    -4.5620 hc         1 IG7       0.048700
    139 H76         11.8240    21.5010    -3.7950 hc         1 IG7       0.046700
    140 H77         12.1250    21.9440    -5.4710 hc         1 IG7       0.046700
    141 H78         10.8300    23.7310    -4.7200 hc         1 IG7       0.038200
    142 H79          9.6520    22.7430    -5.5670 hc         1 IG7       0.038200
    143 H80          8.9850    21.7690    -3.2550 hc         1 IG7       0.038700
    144 H81         10.0740    22.9530    -2.5360 hc         1 IG7       0.038700
    145 H82          8.6740    24.7430    -3.8950 hc         1 IG7       0.036700
    146 H83          7.5240    23.4440    -4.1550 hc         1 IG7       0.036700
    147 H84          6.6700    24.6430    -2.3100 hc         1 IG7       0.038200
    148 H85          7.3720    23.2050    -1.5820 hc         1 IG7       0.038200
    149 H86          9.3920    24.5190    -0.8950 hc         1 IG7       0.037700
    150 H87          8.7850    25.9290    -1.7570 hc         1 IG7       0.037700
    151 H88          6.8030    26.0220    -0.2220 hc         1 IG7       0.037700
    152 H89          7.4220    24.6230     0.6540 hc         1 IG7       0.037700
    153 H90          9.4280    25.9090     1.3700 hc         1 IG7       0.036700
    154 H91          8.9710    27.2570     0.3410 hc         1 IG7       0.036700
    155 H92          8.4480    27.8290     2.6250 hc         1 IG7       0.038200
    156 H93          6.9460    27.6850     1.7220 hc         1 IG7       0.038200
    157 H94          6.6160    25.3750     2.6820 hc         1 IG7       0.038700
    158 H95          8.0870    25.5600     3.6290 hc         1 IG7       0.038700
    159 H96          5.9630    25.9470     4.9140 hc         1 IG7       0.037200
    160 H97          5.5620    27.2980     3.8640 hc         1 IG7       0.037200
    161 H98          8.0400    27.1640     5.6790 hc         1 IG7       0.036700
    162 H99          7.5860    28.5430     4.6800 hc         1 IG7       0.036700
    163 H100         6.9160    28.8870     7.0610 hc         1 IG7       0.031033
    164 H101         5.4900    28.8550     6.0020 hc         1 IG7       0.031033
    165 H102         5.8920    27.4370     6.9950 hc         1 IG7       0.031033
    166 H103        11.9870    13.1020    -9.0320 hn         1 IG7       0.327500
    167 H104        11.3620    14.6890    -8.5910 hn         1 IG7       0.327500
@<TRIPOS>BOND
     1     1     2 1   
     2     1    38 1   
     3     1    64 1   
     4     2     3 1   
     5     2    18 2   
     6     3     4 1   
     7     3    65 1   
     8     3    66 1   
     9     4     5 1   
    10     4    67 1   
    11     4    68 1   
    12     5     6 1   
    13     5    69 1   
    14     5    70 1   
    15     6     7 1   
    16     6    71 1   
    17     6    72 1   
    18     7     8 1   
    19     7    73 1   
    20     7    74 1   
    21     8     9 1   
    22     8    75 1   
    23     8    76 1   
    24     9    10 1   
    25     9    77 1   
    26     9    78 1   
    27    10    11 1   
    28    10    79 1   
    29    10    80 1   
    30    11    12 1   
    31    11    81 1   
    32    11    82 1   
    33    12    13 1   
    34    12    83 1   
    35    12    84 1   
    36    13    14 1   
    37    13    85 1   
    38    13    86 1   
    39    14    15 1   
    40    14    87 1   
    41    14    88 1   
    42    15    16 1   
    43    15    89 1   
    44    15    90 1   
    45    16    17 1   
    46    16    91 1   
    47    16    92 1   
    48    17    93 1   
    49    17    94 1   
    50    17    95 1   
    51    19    20 1   
    52    19    42 1   
    53    19    96 1   
    54    19    97 1   
    55    20    21 1   
    56    21    22 1   
    57    21    36 2   
    58    22    23 1   
    59    22    98 1   
    60    22    99 1   
    61    23    24 1   
    62    23   100 1   
    63    23   101 1   
    64    24    25 1   
    65    24   102 1   
    66    24   103 1   
    67    25    26 1   
    68    25   104 1   
    69    25   105 1   
    70    26    27 1   
    71    26   106 1   
    72    26   107 1   
    73    27    28 1   
    74    27   108 1   
    75    27   109 1   
    76    28    29 1   
    77    28   110 1   
    78    28   111 1   
    79    29    30 1   
    80    29   112 1   
    81    29   113 1   
    82    30    31 1   
    83    30   114 1   
    84    30   115 1   
    85    31    32 1   
    86    31   116 1   
    87    31   117 1   
    88    32    33 1   
    89    32   118 1   
    90    32   119 1   
    91    33    34 1   
    92    33   120 1   
    93    33   121 1   
    94    34    35 1   
    95    34   122 1   
    96    34   123 1   
    97    35    37 1   
    98    35   124 1   
    99    35   125 1   
   100    37   126 1   
   101    37   127 1   
   102    37   128 1   
   103    38    39 1   
   104    38    60 1   
   105    38   129 1   
   106    39    40 1   
   107    39   130 1   
   108    39   131 1   
   109    40    41 1   
   110    41    42 1   
   111    41   132 1   
   112    41   133 1   
   113    42    43 1   
   114    42   134 1   
   115    43    44 1   
   116    44    45 1   
   117    44    63 2   
   118    45    46 1   
   119    45   135 1   
   120    45   136 1   
   121    46    47 1   
   122    46   137 1   
   123    46   138 1   
   124    47    48 1   
   125    47   139 1   
   126    47   140 1   
   127    48    49 1   
   128    48   141 1   
   129    48   142 1   
   130    49    50 1   
   131    49   143 1   
   132    49   144 1   
   133    50    51 1   
   134    50   145 1   
   135    50   146 1   
   136    51    52 1   
   137    51   147 1   
   138    51   148 1   
   139    52    53 1   
   140    52   149 1   
   141    52   150 1   
   142    53    54 1   
   143    53   151 1   
   144    53   152 1   
   145    54    55 1   
   146    54   153 1   
   147    54   154 1   
   148    55    56 1   
   149    55   155 1   
   150    55   156 1   
   151    56    57 1   
   152    56   157 1   
   153    56   158 1   
   154    57    58 1   
   155    57   159 1   
   156    57   160 1   
   157    58    59 1   
   158    58   161 1   
   159    58   162 1   
   160    59   163 1   
   161    59   164 1   
   162    59   165 1   
   163    60    61 1   
   164    60    62 2   
   165    61   166 1   
   166    61   167 1   
@<TRIPOS>SUBSTRUCTURE
     1 IG7         1 TEMP              0 ****  ****    0 ROOT
