@<TRIPOS>MOLECULE
IG9
   49    53     1     0     0
SMALL
No Charge or Current Charge


@<TRIPOS>ATOM
      1 C10         91.2050    -6.7920    16.1260 cc         1 IG9       0.260900
      2 C11         94.3380   -11.7750     9.1020 ca         1 IG9       0.477500
      3 C15         93.4500   -10.5840    11.0600 cc         1 IG9      -0.194000
      4 C17         93.3730   -13.5960     7.9790 ca         1 IG9       0.301000
      5 C20         95.5990   -12.0820     8.5480 ca         1 IG9      -0.176000
      6 C21         94.6110   -13.9480     7.3910 ca         1 IG9      -0.100000
      7 C22         95.7440   -13.1770     7.6830 ca         1 IG9      -0.039000
      8 C23         93.7080    -2.9810    14.7790 cy         1 IG9      -0.118400
      9 C24         94.1370    -4.3890    15.3010 cy         1 IG9       0.101500
     10 C25         92.5400    -3.7250    14.0580 cy         1 IG9       0.101500
     11 C26         90.1980   -10.1260    15.7930 c3         1 IG9       0.071900
     12 C27         92.2410   -14.3780     7.6810 ca         1 IG9      -0.085000
     13 C28         94.7080   -15.0570     6.5290 ca         1 IG9      -0.084000
     14 C1          91.9640    -7.0350    14.9650 cc         1 IG9      -0.251600
     15 C2          91.7090    -8.3710    14.6290 cd         1 IG9      -0.144600
     16 C3          92.1900    -9.2700    13.5100 c          1 IG9       0.627700
     17 N4          94.2580   -10.6730     9.9510 na         1 IG9      -0.189000
     18 C5          92.8180    -5.9690    14.3470 c          1 IG9       0.661700
     19 N6          94.5150    -8.6170    10.6690 nd         1 IG9      -0.678000
     20 C7          93.6460    -9.2950    11.4980 cd         1 IG9       0.353900
     21 N8          90.8120    -8.7950    15.6370 na         1 IG9       0.177800
     22 N9          90.5070    -7.8110    16.5570 nd         1 IG9      -0.518800
     23 N12         93.0570    -8.7310    12.5980 ns         1 IG9      -0.449400
     24 N13         93.2540   -12.5350     8.8110 nb         1 IG9      -0.693000
     25 C14         94.8670    -9.4710     9.7160 cc         1 IG9       0.416400
     26 N16         92.6950    -4.7710    15.1250 nj         1 IG9      -0.406800
     27 O18         91.8240   -10.4320    13.4190 o          1 IG9      -0.613100
     28 O19         93.4700    -6.2070    13.3390 o          1 IG9      -0.625100
     29 C29         92.3340   -15.4870     6.8200 ca         1 IG9      -0.093000
     30 C30         93.5680   -15.8260     6.2440 ca         1 IG9      -0.109000
     31 H1          91.1330    -5.8730    16.6940 h4         1 IG9       0.042100
     32 H2          92.8400   -11.4000    11.4250 h4         1 IG9       0.200000
     33 H3          96.4710   -11.4830     8.7940 ha         1 IG9       0.132000
     34 H4          96.7150   -13.4190     7.2550 ha         1 IG9       0.124000
     35 H5          93.3830    -2.2900    15.5650 hc         1 IG9       0.063700
     36 H6          94.4260    -2.4710    14.1280 hc         1 IG9       0.063700
     37 H7          94.4610    -4.3970    16.3470 h1         1 IG9       0.060950
     38 H8          94.8840    -4.8860    14.6700 h1         1 IG9       0.060950
     39 H9          92.7650    -4.0060    13.0220 h1         1 IG9       0.060950
     40 H10         91.5800    -3.2000    14.1070 h1         1 IG9       0.060950
     41 H11         89.5470   -10.1390    16.6750 h1         1 IG9       0.069700
     42 H12         89.6010   -10.3610    14.9050 h1         1 IG9       0.069700
     43 H13         90.9840   -10.8800    15.9190 h1         1 IG9       0.069700
     44 H14         91.2830   -14.1210     8.1240 ha         1 IG9       0.136000
     45 H15         95.6630   -15.3240     6.0800 ha         1 IG9       0.117000
     46 H16         93.2900    -7.7660    12.7810 hn         1 IG9       0.393500
     47 H17         95.5220    -9.2800     8.8730 h5         1 IG9       0.057100
     48 H18         91.4490   -16.0800     6.6010 ha         1 IG9       0.119000
     49 H19         93.6410   -16.6830     5.5770 ha         1 IG9       0.118000
@<TRIPOS>BOND
     1     1    14 1   
     2     1    22 2   
     3     1    31 1   
     4     2     5 ar  
     5     2    17 1   
     6     2    24 ar  
     7     3    17 1   
     8     3    20 2   
     9     3    32 1   
    10     4     6 ar  
    11     4    12 ar  
    12     4    24 ar  
    13     5     7 ar  
    14     5    33 1   
    15     6     7 ar  
    16     6    13 ar  
    17     7    34 1   
    18     8     9 1   
    19     8    10 1   
    20     8    35 1   
    21     8    36 1   
    22     9    26 1   
    23     9    37 1   
    24     9    38 1   
    25    10    26 1   
    26    10    39 1   
    27    10    40 1   
    28    11    21 1   
    29    11    41 1   
    30    11    42 1   
    31    11    43 1   
    32    12    29 ar  
    33    12    44 1   
    34    13    30 ar  
    35    13    45 1   
    36    14    15 2   
    37    14    18 1   
    38    15    16 1   
    39    15    21 1   
    40    16    23 1   
    41    16    27 2   
    42    17    25 1   
    43    18    26 1   
    44    18    28 2   
    45    19    20 1   
    46    19    25 2   
    47    20    23 1   
    48    21    22 1   
    49    23    46 1   
    50    25    47 1   
    51    29    30 ar  
    52    29    48 1   
    53    30    49 1   
@<TRIPOS>SUBSTRUCTURE
     1 IG9         1 TEMP              0 ****  ****    0 ROOT
