@<TRIPOS>MOLECULE
IG9
   49    53     1     0     0
SMALL
bcc


@<TRIPOS>ATOM
      1 C10         91.3300    -6.8430    16.0720 cc         1 IG9       0.326200
      2 C11         94.6490   -11.9200     9.2430 ca         1 IG9       0.542800
      3 C15         93.6140   -10.6920    11.1230 cc         1 IG9      -0.226600
      4 C17         93.4500   -13.5080     8.1200 ca         1 IG9       0.431600
      5 C20         95.8140   -12.1590     8.4730 ca         1 IG9      -0.259300
      6 C21         94.5470   -13.8240     7.2850 ca         1 IG9      -0.165300
      7 C22         95.7460   -13.1080     7.4980 ca         1 IG9      -0.057000
      8 C23         92.9660    -2.8860    14.4290 cy         1 IG9      -0.118400
      9 C24         94.1070    -3.9090    14.2620 cy         1 IG9       0.101500
     10 C25         92.0670    -4.0350    14.9260 cy         1 IG9       0.101500
     11 C26         89.9280    -9.9210    15.2600 c3         1 IG9       0.042600
     12 C27         92.2330   -14.2030     7.9470 ca         1 IG9      -0.168300
     13 C28         94.4080   -14.8210     6.2970 ca         1 IG9      -0.102000
     14 C1          92.2000    -7.1070    15.0050 cc         1 IG9      -0.316900
     15 C2          91.7830    -8.3520    14.5270 cd         1 IG9      -0.093900
     16 C3          92.2170    -9.2110    13.3920 c          1 IG9       0.694700
     17 N4          94.6600   -10.9480    10.2560 na         1 IG9      -0.239700
     18 C5          93.3260    -6.2620    14.5680 c          1 IG9       0.728700
     19 N6          95.3380    -9.3150    11.5670 nd         1 IG9      -0.678000
     20 C7          94.0700    -9.6810    11.9200 cd         1 IG9       0.419200
     21 N8          90.7410    -8.7180    15.3030 na         1 IG9       0.156400
     22 N9          90.4710    -7.8240    16.2420 nd         1 IG9      -0.518800
     23 N12         93.4780    -9.0120    12.9760 ns         1 IG9      -0.516400
     24 N13         93.5300   -12.5580     9.0800 nb         1 IG9      -0.693000
     25 C14         95.6620   -10.0880    10.5720 cc         1 IG9       0.416400
     26 N16         93.1940    -4.9480    14.7230 nj         1 IG9      -0.473800
     27 O18         91.4640   -10.0370    12.9000 o          1 IG9      -0.613100
     28 O19         94.3700    -6.7360    14.1020 o          1 IG9      -0.625100
     29 C29         92.1250   -15.1680     6.9800 ca         1 IG9      -0.111000
     30 C30         93.2180   -15.4820     6.1480 ca         1 IG9      -0.127000
     31 H1          91.3230    -5.9970    16.7410 h4         1 IG9       0.042100
     32 H2          92.6970   -11.2460    11.0900 h4         1 IG9       0.218000
     33 H3          96.7340   -11.6210     8.6430 ha         1 IG9       0.150000
     34 H4          96.6130   -13.3200     6.8850 ha         1 IG9       0.142000
     35 H5          93.1530    -2.1090    15.1650 hc         1 IG9       0.063700
     36 H6          92.6360    -2.4280    13.5000 hc         1 IG9       0.063700
     37 H7          94.9680    -3.7660    14.9170 h1         1 IG9       0.060950
     38 H8          94.4590    -4.0630    13.2410 h1         1 IG9       0.060950
     39 H9          91.2000    -4.2700    14.3090 h1         1 IG9       0.060950
     40 H10         91.7530    -3.9440    15.9660 h1         1 IG9       0.060950
     41 H11         89.3350    -9.9280    16.1690 h1         1 IG9       0.069700
     42 H12         89.2690    -9.9160    14.3970 h1         1 IG9       0.069700
     43 H13         90.5510   -10.8100    15.2330 h1         1 IG9       0.069700
     44 H14         91.3970   -13.9560     8.5880 ha         1 IG9       0.154000
     45 H15         95.2540   -15.0550     5.6610 ha         1 IG9       0.135000
     46 H16         94.0280    -8.2600    13.4150 hn         1 IG9       0.393500
     47 H17         96.6030   -10.0540    10.0490 h5         1 IG9       0.057100
     48 H18         91.1900   -15.6970     6.8520 ha         1 IG9       0.137000
     49 H19         93.1110   -16.2470     5.3910 ha         1 IG9       0.136000
@<TRIPOS>BOND
     1     1    14 1   
     2     1    22 2   
     3     1    31 1   
     4     2     5 ar  
     5     2    17 1   
     6     2    24 ar  
     7     3    17 1   
     8     3    20 2   
     9     3    32 1   
    10     4     6 ar  
    11     4    12 ar  
    12     4    24 ar  
    13     5     7 ar  
    14     5    33 1   
    15     6     7 ar  
    16     6    13 ar  
    17     7    34 1   
    18     8     9 1   
    19     8    10 1   
    20     8    35 1   
    21     8    36 1   
    22     9    26 1   
    23     9    37 1   
    24     9    38 1   
    25    10    26 1   
    26    10    39 1   
    27    10    40 1   
    28    11    21 1   
    29    11    41 1   
    30    11    42 1   
    31    11    43 1   
    32    12    29 ar  
    33    12    44 1   
    34    13    30 ar  
    35    13    45 1   
    36    14    15 2   
    37    14    18 1   
    38    15    16 1   
    39    15    21 1   
    40    16    23 1   
    41    16    27 2   
    42    17    25 1   
    43    18    26 1   
    44    18    28 2   
    45    19    20 1   
    46    19    25 2   
    47    20    23 1   
    48    21    22 1   
    49    23    46 1   
    50    25    47 1   
    51    29    30 ar  
    52    29    48 1   
    53    30    49 1   
@<TRIPOS>SUBSTRUCTURE
     1 IG9         1 TEMP              0 ****  ****    0 ROOT
