@<TRIPOS>MOLECULE
IGA
   16    17     1     0     0
SMALL
abcg2


@<TRIPOS>ATOM
      1 N1          -1.5460     0.8540     0.0150 nc         1 IGA      -0.767100
      2 C2          -1.8020    -0.4810     0.0380 c          1 IGA       0.723400
      3 O2          -2.9420    -0.9300     0.0710 o          1 IGA      -0.541000
      4 N3          -0.7290    -1.3620     0.0240 ns         1 IGA      -0.583900
      5 C4           0.5420    -0.8950    -0.0080 cc         1 IGA       0.455900
      6 C5           0.7790     0.4580    -0.0320 cd         1 IGA      -0.428900
      7 C6          -0.3240     1.3480    -0.0180 cd         1 IGA       0.819800
      8 N6          -0.1620     2.6710    -0.0520 nv         1 IGA      -1.038200
      9 N7           2.1500     0.5650    -0.0600 na         1 IGA      -0.281500
     10 C8           2.6320    -0.6840    -0.0530 cd         1 IGA       0.463400
     11 N9           1.6870    -1.6050    -0.0210 nc         1 IGA      -0.706000
     12 HN3         -0.9090    -2.3550     0.0480 hn         1 IGA       0.462000
     13 HN6         -0.9680     3.2670     0.0380 hn         1 IGA       0.499500
     14 HN6A         0.7420     3.1020     0.0260 hn         1 IGA       0.499500
     15 H8           3.6910    -0.8840    -0.0720 h5         1 IGA       0.063100
     16 HN7          2.7080     1.4030    -0.0890 hn         1 IGA       0.360000
@<TRIPOS>BOND
     1     1     2 1   
     2     1     7 2   
     3     2     3 2   
     4     2     4 1   
     5     4     5 1   
     6     4    12 1   
     7     5     6 2   
     8     5    11 1   
     9     6     7 1   
    10     6     9 1   
    11     7     8 1   
    12     8    13 1   
    13     8    14 1   
    14     9    10 1   
    15     9    16 1   
    16    10    11 2   
    17    10    15 1   
@<TRIPOS>SUBSTRUCTURE
     1 IGA         1 TEMP              0 ****  ****    0 ROOT
