@<TRIPOS>MOLECULE
IGA
   16    17     1     0     0
SMALL
No Charge or Current Charge


@<TRIPOS>ATOM
      1 N1          -1.5440     0.8920    -0.0500 nc         1 IGA      -0.767100
      2 C2          -1.7930    -0.4620     0.0240 c          1 IGA       0.723400
      3 O2          -2.9240    -0.9010     0.0670 o          1 IGA      -0.541000
      4 N3          -0.7220    -1.2970     0.0490 ns         1 IGA      -0.583900
      5 C4           0.5390    -0.8460     0.0050 cc         1 IGA       0.455900
      6 C5           0.7800     0.4520    -0.0670 cd         1 IGA      -0.428900
      7 C6          -0.3210     1.3320    -0.0980 cd         1 IGA       0.819800
      8 N6          -0.1680     2.6430    -0.1550 nv         1 IGA      -1.038200
      9 N7           2.1620     0.5940    -0.1040 na         1 IGA      -0.281500
     10 C8           2.6600    -0.7110    -0.0450 cd         1 IGA       0.463400
     11 N9           1.6560    -1.5990     0.0220 nc         1 IGA      -0.706000
     12 HN3         -0.9090    -2.2860     0.1030 hn         1 IGA       0.462000
     13 HN6         -1.0040     3.1500     0.1010 hn         1 IGA       0.499500
     14 HN6A         0.6940     2.9960     0.2350 hn         1 IGA       0.499500
     15 H8           3.7220    -0.9260    -0.0580 h5         1 IGA       0.063100
     16 HN7          2.7200     1.4390    -0.1740 hn         1 IGA       0.360000
@<TRIPOS>BOND
     1     1     2 1   
     2     1     7 2   
     3     2     3 2   
     4     2     4 1   
     5     4     5 1   
     6     4    12 1   
     7     5     6 2   
     8     5    11 1   
     9     6     7 1   
    10     6     9 1   
    11     7     8 1   
    12     8    13 1   
    13     8    14 1   
    14     9    10 1   
    15     9    16 1   
    16    10    11 2   
    17    10    15 1   
@<TRIPOS>SUBSTRUCTURE
     1 IGA         1 TEMP              0 ****  ****    0 ROOT
