@<TRIPOS>MOLECULE
IGB
   20    19     1     0     0
SMALL
bcc


@<TRIPOS>ATOM
      1 C10        -10.5840   -18.1900   -13.5010 c3         1 IGB       0.333600
      2 C01        -12.5730   -19.3800   -10.2100 c          1 IGB       0.935600
      3 C03        -13.4300   -19.1690   -11.5140 c3         1 IGB       0.201100
      4 C04        -14.6750   -18.2770   -11.3640 c3         1 IGB       0.617900
      5 C09        -11.8200   -17.7350   -12.6840 c3         1 IGB       0.641400
      6 C11         -9.4760   -17.1330   -13.7260 c3         1 IGB       0.624900
      7 F05        -15.3200   -18.1600   -12.5290 f          1 IGB      -0.238633
      8 F06        -14.3400   -17.0490   -10.9730 f          1 IGB      -0.238633
      9 F07        -15.5390   -18.7810   -10.4890 f          1 IGB      -0.238633
     10 F12         -9.9230   -16.1000   -14.4260 f          1 IGB      -0.217633
     11 F13         -8.4760   -17.6960   -14.3960 f          1 IGB      -0.217633
     12 F14         -9.0020   -16.6880   -12.5690 f          1 IGB      -0.217633
     13 F15        -11.0140   -18.5990   -14.7060 f          1 IGB      -0.184300
     14 F16        -10.0130   -19.2280   -12.8740 f          1 IGB      -0.184300
     15 F17        -11.4280   -17.3060   -11.4780 f          1 IGB      -0.216800
     16 F18        -12.3770   -16.6780   -13.3100 f          1 IGB      -0.216800
     17 F19        -13.9000   -20.3870   -11.9050 f          1 IGB      -0.201300
     18 O08        -12.6970   -18.7530   -12.6430 os         1 IGB      -0.472600
     19 O02        -13.0240   -18.8640    -9.1850 o          1 IGB      -0.754300
     20 O20        -11.5780   -20.0830   -10.3980 o          1 IGB      -0.754300
@<TRIPOS>BOND
     1     1     5 1   
     2     1     6 1   
     3     1    13 1   
     4     1    14 1   
     5     2     3 1   
     6     2    19 1   
     7     2    20 1   
     8     3     4 1   
     9     3    17 1   
    10     3    18 1   
    11     4     7 1   
    12     4     8 1   
    13     4     9 1   
    14     5    15 1   
    15     5    16 1   
    16     5    18 1   
    17     6    10 1   
    18     6    11 1   
    19     6    12 1   
@<TRIPOS>SUBSTRUCTURE
     1 IGB         1 TEMP              0 ****  ****    0 ROOT
