@<TRIPOS>MOLECULE
IGB
   20    19     1     0     0
SMALL
No Charge or Current Charge


@<TRIPOS>ATOM
      1 C10        -10.5060   -18.1910   -13.6010 c3         1 IGB       0.091000
      2 C01        -12.7750   -19.4900   -10.0360 c          1 IGB       0.725000
      3 C03        -13.4800   -19.3070   -11.4540 c3         1 IGB       0.243000
      4 C04        -14.5670   -18.1660   -11.4220 c3         1 IGB       0.254000
      5 C09        -11.7320   -17.8870   -12.6730 c3         1 IGB       0.422000
      6 C11         -9.5240   -17.0030   -13.8410 c3         1 IGB       0.261000
      7 F05        -15.0370   -17.8870   -12.6620 f          1 IGB      -0.117333
      8 F06        -14.0810   -17.0150   -10.8980 f          1 IGB      -0.117333
      9 F07        -15.6330   -18.5140   -10.6610 f          1 IGB      -0.117333
     10 F12        -10.1500   -15.9400   -14.3980 f          1 IGB      -0.096333
     11 F13         -8.5170   -17.3640   -14.6710 f          1 IGB      -0.096333
     12 F14         -8.9640   -16.5760   -12.6850 f          1 IGB      -0.096333
     13 F15        -10.9660   -18.6270   -14.8020 f          1 IGB      -0.063000
     14 F16         -9.8110   -19.2340   -13.0800 f          1 IGB      -0.063000
     15 F17        -11.2950   -17.4250   -11.4780 f          1 IGB      -0.095500
     16 F18        -12.4610   -16.8870   -13.2210 f          1 IGB      -0.095500
     17 F19        -14.1440   -20.4640   -11.7280 f          1 IGB      -0.220000
     18 O08        -12.5150   -19.1130   -12.5570 os         1 IGB      -0.519000
     19 O02        -13.4310   -19.3220    -9.0130 o          1 IGB      -0.649000
     20 O20        -11.5990   -19.8440    -9.9980 o          1 IGB      -0.649000
@<TRIPOS>BOND
     1     1     5 1   
     2     1     6 1   
     3     1    13 1   
     4     1    14 1   
     5     2     3 1   
     6     2    19 1   
     7     2    20 1   
     8     3     4 1   
     9     3    17 1   
    10     3    18 1   
    11     4     7 1   
    12     4     8 1   
    13     4     9 1   
    14     5    15 1   
    15     5    16 1   
    16     5    18 1   
    17     6    10 1   
    18     6    11 1   
    19     6    12 1   
@<TRIPOS>SUBSTRUCTURE
     1 IGB         1 TEMP              0 ****  ****    0 ROOT
