@<TRIPOS>MOLECULE
IGC
  144   146     1     0     0
SMALL
abcg2


@<TRIPOS>ATOM
      1 C1          21.0150     3.6580    -1.6880 c3         1 IGC      -0.088100
      2 C2          19.5630     3.9560    -1.3380 c3         1 IGC      -0.075400
      3 C3          18.7630     2.7020    -1.0060 c3         1 IGC      -0.075400
      4 C4          17.3100     2.9910    -0.6490 c3         1 IGC      -0.074400
      5 C5          16.5060     1.7370    -0.3290 c3         1 IGC      -0.074400
      6 C6          15.0550     2.0290     0.0310 c3         1 IGC      -0.074400
      7 C7          14.2470     0.7770     0.3510 c3         1 IGC      -0.074400
      8 C8          12.7980     1.0750     0.7140 c3         1 IGC      -0.074400
      9 C9          11.9850    -0.1730     1.0400 c3         1 IGC      -0.074400
     10 C10         10.5380     0.1350     1.4040 c3         1 IGC      -0.074400
     11 C11          9.7210    -1.1060     1.7430 c3         1 IGC      -0.075400
     12 C12          8.2750    -0.7830     2.0990 c3         1 IGC      -0.072400
     13 C13          7.4510    -2.0210     2.4560 c3         1 IGC      -0.045200
     14 C14          6.0480    -1.6640     2.8370 c2         1 IGC      -0.205200
     15 C15          4.9660    -2.0510     2.1700 c2         1 IGC      -0.259200
     16 C16          3.5500    -1.6660     2.4970 c3         1 IGC       0.188500
     17 O1           3.4480    -0.8050     3.6030 oh         1 IGC      -0.645000
     18 C17          2.8570    -1.0460     1.2600 c3         1 IGC       0.095700
     19 C18          1.4390    -0.5830     1.5860 c3         1 IGC       0.154600
     20 O2           0.8540    -0.1150     0.3860 os         1 IGC      -0.460000
     21 C19         -0.2810     0.6460     0.5420 c6         1 IGC       0.366300
     22 O3          -1.3490    -0.1960     0.8940 os         1 IGC      -0.457000
     23 C20         -2.5460     0.5100     1.1370 c6         1 IGC       0.156300
     24 C21         -3.5580    -0.4750     1.6850 c3         1 IGC       0.168600
     25 O4          -3.0520    -1.0180     2.8790 oh         1 IGC      -0.705000
     26 C22         -3.0020     1.1810    -0.1690 c6         1 IGC       0.145300
     27 O5          -4.1560     1.9690     0.0540 os         1 IGC      -0.441000
     28 C23         -5.3520     1.4720    -0.4270 c6         1 IGC       0.361300
     29 O6          -5.3850     1.6270    -1.8150 os         1 IGC      -0.436000
     30 C24         -6.5620     1.0870    -2.3770 c6         1 IGC       0.184300
     31 C25         -6.4470     1.1330    -3.8860 c3         1 IGC       0.173600
     32 O7          -5.4570     0.2170    -4.2890 oh         1 IGC      -0.714000
     33 C26         -7.7840     1.8390    -1.8650 c6         1 IGC       0.112300
     34 O8          -7.7310     3.1590    -2.3430 oh         1 IGC      -0.699000
     35 C27         -7.8030     1.7940    -0.3340 c6         1 IGC       0.140300
     36 O9          -8.8320     2.6400     0.1510 os         1 IGC      -0.445000
     37 C28        -10.0700     2.0440     0.3250 c6         1 IGC       0.362300
     38 O10        -10.0790     1.4290     1.5800 os         1 IGC      -0.430000
     39 C29        -11.2860     0.7390     1.8350 c6         1 IGC       0.176300
     40 C30        -11.1430    -0.0170     3.1380 c3         1 IGC       0.173600
     41 O11        -10.1940    -1.0430     2.9650 oh         1 IGC      -0.720000
     42 C31        -12.4780     1.6910     1.8460 c6         1 IGC       0.160300
     43 O12        -12.4110     2.5180     2.9770 oh         1 IGC      -0.699000
     44 C32        -12.4910     2.4730     0.5320 c6         1 IGC       0.138300
     45 O13        -13.5480     3.3960     0.6020 oh         1 IGC      -0.649000
     46 C33        -11.1450     3.1270     0.2260 c6         1 IGC       0.120300
     47 O14        -10.9150     4.1900     1.1070 oh         1 IGC      -0.685000
     48 C34         -6.4790     2.2620     0.2440 c6         1 IGC       0.153300
     49 O15         -6.4970     2.0450     1.6290 oh         1 IGC      -0.698000
     50 C35         -1.8960     2.1000    -0.6760 c6         1 IGC       0.176300
     51 O16         -2.2870     2.6340    -1.9110 oh         1 IGC      -0.690000
     52 C36         -0.5850     1.3290    -0.7860 c6         1 IGC       0.103300
     53 O17          0.4180     2.2480    -1.1410 oh         1 IGC      -0.723000
     54 N1           2.9120    -1.9240     0.1080 ns         1 IGC      -0.502900
     55 C37          2.2170    -3.0660    -0.0450 c          1 IGC       0.605100
     56 O18          1.4950    -3.5310     0.8270 o          1 IGC      -0.597100
     57 C38          2.3880    -3.7330    -1.3940 c3         1 IGC      -0.156400
     58 C39          2.1830    -5.2400    -1.3480 c3         1 IGC      -0.066400
     59 C40          2.3780    -5.8960    -2.7090 c3         1 IGC      -0.076400
     60 C41          2.1500    -7.4010    -2.6740 c3         1 IGC      -0.075400
     61 C42          2.3750    -8.0790    -4.0190 c3         1 IGC      -0.075400
     62 C43          2.1320    -9.5830    -3.9810 c3         1 IGC      -0.075400
     63 C44          2.3750   -10.2580    -5.3240 c3         1 IGC      -0.088100
     64 H11A        21.5630     4.5670    -1.9380 hc         1 IGC       0.031367
     65 H12A        21.5330     3.1800    -0.8540 hc         1 IGC       0.031367
     66 H13A        21.0830     2.9860    -2.5460 hc         1 IGC       0.031367
     67 H21         19.5230     4.6460    -0.4890 hc         1 IGC       0.036700
     68 H22A        19.0860     4.4780    -2.1740 hc         1 IGC       0.036700
     69 H31A        18.7990     2.0160    -1.8590 hc         1 IGC       0.037200
     70 H32A        19.2430     2.1760    -0.1730 hc         1 IGC       0.037200
     71 H41         17.2740     3.6720     0.2080 hc         1 IGC       0.036700
     72 H42         16.8330     3.5250    -1.4800 hc         1 IGC       0.036700
     73 H51         16.5390     1.0570    -1.1880 hc         1 IGC       0.037200
     74 H52         16.9830     1.2010     0.4990 hc         1 IGC       0.037200
     75 H61         15.0230     2.7080     0.8900 hc         1 IGC       0.037200
     76 H62         14.5780     2.5660    -0.7970 hc         1 IGC       0.037200
     77 H71         14.2760     0.0980    -0.5080 hc         1 IGC       0.037700
     78 H72         14.7240     0.2390     1.1780 hc         1 IGC       0.037700
     79 H81         12.7700     1.7570     1.5710 hc         1 IGC       0.037200
     80 H82         12.3210     1.6110    -0.1140 hc         1 IGC       0.037200
     81 H91         12.0100    -0.8560     0.1840 hc         1 IGC       0.037700
     82 H92         12.4610    -0.7090     1.8690 hc         1 IGC       0.037700
     83 H101        10.5160     0.8240     2.2550 hc         1 IGC       0.037200
     84 H102        10.0620     0.6660     0.5720 hc         1 IGC       0.037200
     85 H111         9.7420    -1.7990     0.8950 hc         1 IGC       0.038700
     86 H112        10.1910    -1.6340     2.5800 hc         1 IGC       0.038700
     87 H121         8.2550    -0.0820     2.9410 hc         1 IGC       0.038200
     88 H122         7.7990    -0.2660     1.2600 hc         1 IGC       0.038200
     89 H131         7.4490    -2.7200     1.6150 hc         1 IGC       0.047200
     90 H132         7.9350    -2.5370     3.2920 hc         1 IGC       0.047200
     91 H14          5.9510    -1.0260     3.7120 ha         1 IGC       0.172000
     92 H15          5.0850    -2.7020     1.3080 ha         1 IGC       0.178000
     93 H16          2.9960    -2.5680     2.7750 h1         1 IGC       0.111700
     94 HO1          3.9320     0.0060     3.4080 ho         1 IGC       0.436000
     95 H17          3.4340    -0.1610     0.9710 h1         1 IGC       0.043700
     96 H181         0.8500    -1.3940     2.0190 h1         1 IGC       0.062700
     97 H182         1.4880     0.2270     2.3210 h1         1 IGC       0.062700
     98 H19         -0.1400     1.4090     1.3320 h2         1 IGC       0.032700
     99 H20         -2.3770     1.2960     1.8920 h1         1 IGC       0.054700
    100 H211        -4.5030     0.0510     1.8610 h1         1 IGC       0.032700
    101 H212        -3.7520    -1.2520     0.9320 h1         1 IGC       0.032700
    102 HO4         -3.7420    -1.5600     3.2720 ho         1 IGC       0.506000
    103 H22         -3.1970     0.4070    -0.9230 h1         1 IGC       0.082700
    104 H23         -5.4680     0.4000    -0.1790 h2         1 IGC       0.024700
    105 H24         -6.6810     0.0340    -2.0730 h1         1 IGC       0.048700
    106 H251        -7.4290     0.8790    -4.3060 h1         1 IGC       0.037700
    107 H252        -6.2130     2.1540    -4.2070 h1         1 IGC       0.037700
    108 HO7         -5.3120     0.3330    -5.2320 ho         1 IGC       0.506000
    109 H26         -8.6790     1.3160    -2.2370 h1         1 IGC       0.034700
    110 HO8         -8.4500     3.6560    -1.9380 ho         1 IGC       0.510000
    111 H27         -7.9770     0.7570    -0.0160 h1         1 IGC       0.074700
    112 H28        -10.2640     1.2910    -0.4620 h2         1 IGC       0.015700
    113 H29        -11.4750     0.0060     1.0330 h1         1 IGC       0.037700
    114 H301       -10.8510     0.6750     3.9360 h1         1 IGC       0.042200
    115 H302       -12.1300    -0.4190     3.4040 h1         1 IGC       0.042200
    116 H11        -10.0950    -1.4990     3.8050 ho         1 IGC       0.506000
    117 H31        -13.3880     1.0700     1.8660 h1         1 IGC       0.043700
    118 H12        -12.9270     3.3110     2.8010 ho         1 IGC       0.531000
    119 H32        -12.6620     1.7340    -0.2670 h1         1 IGC       0.034700
    120 H13        -13.5290     3.9620    -0.1770 ho         1 IGC       0.456000
    121 H33        -11.1640     3.4740    -0.8200 h1         1 IGC       0.025700
    122 H1         -10.1020     4.6310     0.8400 ho         1 IGC       0.521000
    123 H34         -6.3360     3.3250     0.0010 h1         1 IGC       0.075700
    124 H2          -5.7100     2.4500     2.0080 ho         1 IGC       0.518000
    125 H35         -1.7570     2.8980     0.0730 h1         1 IGC       0.047700
    126 H3          -1.6040     3.2530    -2.1930 ho         1 IGC       0.515000
    127 H36         -0.7030     0.5460    -1.5510 h1         1 IGC       0.067700
    128 H4           1.2160     1.7570    -1.3630 ho         1 IGC       0.520000
    129 HN1          3.4850    -1.6200    -0.6610 hn         1 IGC       0.311500
    130 H381         1.6610    -3.2820    -2.0800 hc         1 IGC       0.054700
    131 H382         3.3720    -3.4980    -1.8070 hc         1 IGC       0.054700
    132 H391         2.8800    -5.6840    -0.6310 hc         1 IGC       0.055200
    133 H392         1.1790    -5.4620    -0.9770 hc         1 IGC       0.055200
    134 H401         1.6960    -5.4410    -3.4370 hc         1 IGC       0.034700
    135 H402         3.3900    -5.6900    -3.0730 hc         1 IGC       0.034700
    136 H411         2.8140    -7.8510    -1.9270 hc         1 IGC       0.040200
    137 H412         1.1300    -7.6030    -2.3300 hc         1 IGC       0.040200
    138 H421         1.7200    -7.6250    -4.7710 hc         1 IGC       0.036200
    139 H422         3.4000    -7.8870    -4.3570 hc         1 IGC       0.036200
    140 H431         2.7780   -10.0340    -3.2210 hc         1 IGC       0.037200
    141 H432         1.1050    -9.7740    -3.6550 hc         1 IGC       0.037200
    142 H441         1.7260    -9.8420    -6.0970 hc         1 IGC       0.031033
    143 H442         3.4070   -10.1190    -5.6540 hc         1 IGC       0.031033
    144 H443         2.1860   -11.3300    -5.2760 hc         1 IGC       0.031033
@<TRIPOS>BOND
     1     1     2 1   
     2     1    64 1   
     3     1    65 1   
     4     1    66 1   
     5     2     3 1   
     6     2    67 1   
     7     2    68 1   
     8     3     4 1   
     9     3    69 1   
    10     3    70 1   
    11     4     5 1   
    12     4    71 1   
    13     4    72 1   
    14     5     6 1   
    15     5    73 1   
    16     5    74 1   
    17     6     7 1   
    18     6    75 1   
    19     6    76 1   
    20     7     8 1   
    21     7    77 1   
    22     7    78 1   
    23     8     9 1   
    24     8    79 1   
    25     8    80 1   
    26     9    10 1   
    27     9    81 1   
    28     9    82 1   
    29    10    11 1   
    30    10    83 1   
    31    10    84 1   
    32    11    12 1   
    33    11    85 1   
    34    11    86 1   
    35    12    13 1   
    36    12    87 1   
    37    12    88 1   
    38    13    14 1   
    39    13    89 1   
    40    13    90 1   
    41    14    15 2   
    42    14    91 1   
    43    15    16 1   
    44    15    92 1   
    45    16    17 1   
    46    16    18 1   
    47    16    93 1   
    48    17    94 1   
    49    18    19 1   
    50    18    54 1   
    51    18    95 1   
    52    19    20 1   
    53    19    96 1   
    54    19    97 1   
    55    20    21 1   
    56    21    22 1   
    57    21    52 1   
    58    21    98 1   
    59    22    23 1   
    60    23    24 1   
    61    23    26 1   
    62    23    99 1   
    63    24    25 1   
    64    24   100 1   
    65    24   101 1   
    66    25   102 1   
    67    26    27 1   
    68    26    50 1   
    69    26   103 1   
    70    27    28 1   
    71    28    29 1   
    72    28    48 1   
    73    28   104 1   
    74    29    30 1   
    75    30    31 1   
    76    30    33 1   
    77    30   105 1   
    78    31    32 1   
    79    31   106 1   
    80    31   107 1   
    81    32   108 1   
    82    33    34 1   
    83    33    35 1   
    84    33   109 1   
    85    34   110 1   
    86    35    36 1   
    87    35    48 1   
    88    35   111 1   
    89    36    37 1   
    90    37    38 1   
    91    37    46 1   
    92    37   112 1   
    93    38    39 1   
    94    39    40 1   
    95    39    42 1   
    96    39   113 1   
    97    40    41 1   
    98    40   114 1   
    99    40   115 1   
   100    41   116 1   
   101    42    43 1   
   102    42    44 1   
   103    42   117 1   
   104    43   118 1   
   105    44    45 1   
   106    44    46 1   
   107    44   119 1   
   108    45   120 1   
   109    46    47 1   
   110    46   121 1   
   111    47   122 1   
   112    48    49 1   
   113    48   123 1   
   114    49   124 1   
   115    50    51 1   
   116    50    52 1   
   117    50   125 1   
   118    51   126 1   
   119    52    53 1   
   120    52   127 1   
   121    53   128 1   
   122    54    55 1   
   123    54   129 1   
   124    55    56 2   
   125    55    57 1   
   126    57    58 1   
   127    57   130 1   
   128    57   131 1   
   129    58    59 1   
   130    58   132 1   
   131    58   133 1   
   132    59    60 1   
   133    59   134 1   
   134    59   135 1   
   135    60    61 1   
   136    60   136 1   
   137    60   137 1   
   138    61    62 1   
   139    61   138 1   
   140    61   139 1   
   141    62    63 1   
   142    62   140 1   
   143    62   141 1   
   144    63   142 1   
   145    63   143 1   
   146    63   144 1   
@<TRIPOS>SUBSTRUCTURE
     1 IGC         1 TEMP              0 ****  ****    0 ROOT
