@<TRIPOS>MOLECULE
IGC
  144   146     1     0     0
SMALL
No Charge or Current Charge


@<TRIPOS>ATOM
      1 C1          22.1110    -0.4460     0.8690 c3         1 IGC      -0.088100
      2 C2          20.7510    -0.1770     1.5400 c3         1 IGC      -0.075400
      3 C3          19.5500    -0.5850     0.6590 c3         1 IGC      -0.075400
      4 C4          18.1860    -0.3050     1.3280 c3         1 IGC      -0.074400
      5 C5          16.9840    -0.7020     0.4440 c3         1 IGC      -0.074400
      6 C6          15.6220    -0.3940     1.1040 c3         1 IGC      -0.074400
      7 C7          14.4170    -0.7640     0.2100 c3         1 IGC      -0.074400
      8 C8          13.0580    -0.4120     0.8550 c3         1 IGC      -0.074400
      9 C9          11.8530    -0.7430    -0.0530 c3         1 IGC      -0.074400
     10 C10         10.4990    -0.3420     0.5730 c3         1 IGC      -0.074400
     11 C11          9.2950    -0.6320    -0.3510 c3         1 IGC      -0.075400
     12 C12          7.9480    -0.1730     0.2500 c3         1 IGC      -0.072400
     13 C13          6.7500    -0.4200    -0.6900 c3         1 IGC      -0.045200
     14 C14          5.4570     0.1180    -0.1170 c2         1 IGC      -0.205200
     15 C15          4.8110     1.2070    -0.5670 c2         1 IGC      -0.259200
     16 C16          3.4850     1.7200    -0.0480 c3         1 IGC       0.188500
     17 O1           3.6760     3.0840     0.3350 oh         1 IGC      -0.645000
     18 C17          2.3570     1.6050    -1.1200 c3         1 IGC       0.095700
     19 C18          0.9800     2.0910    -0.5930 c3         1 IGC       0.154600
     20 O2           0.0330     2.0330    -1.6810 os         1 IGC      -0.460000
     21 C19         -1.2930     2.5060    -1.3980 c6         1 IGC       0.366300
     22 O3          -1.9030     1.6620    -0.4050 os         1 IGC      -0.457000
     23 C20         -3.2230     2.1030     0.0150 c6         1 IGC       0.156300
     24 C21         -3.6730     1.2040     1.2140 c3         1 IGC       0.168600
     25 O4          -2.7000     1.1400     2.2770 oh         1 IGC      -0.705000
     26 C22         -4.2020     2.0890    -1.2120 c6         1 IGC       0.145300
     27 O5          -5.5410     2.5600    -0.8880 os         1 IGC      -0.441000
     28 C23         -6.5050     1.5540    -0.5040 c6         1 IGC       0.361300
     29 O6          -6.7730     0.6970    -1.6280 os         1 IGC      -0.436000
     30 C24         -7.6640    -0.4000    -1.3040 c6         1 IGC       0.184300
     31 C25         -7.7380    -1.3710    -2.5280 c3         1 IGC       0.173600
     32 O7          -6.4560    -1.9280    -2.8900 oh         1 IGC      -0.714000
     33 C26         -9.0690     0.1410    -0.8720 c6         1 IGC       0.112300
     34 O8          -9.7710     0.7900    -1.9550 oh         1 IGC      -0.699000
     35 C27         -8.8920     1.1410     0.3190 c6         1 IGC       0.140300
     36 O9         -10.1590     1.7620     0.6730 os         1 IGC      -0.445000
     37 C28        -11.1240     0.9030     1.3160 c6         1 IGC       0.362300
     38 O10        -10.6020     0.5170     2.6030 os         1 IGC      -0.430000
     39 C29        -11.4850    -0.3620     3.3490 c6         1 IGC       0.176300
     40 C30        -10.7370    -0.8620     4.6290 c3         1 IGC       0.173600
     41 O11         -9.5190    -1.5790     4.3320 oh         1 IGC      -0.720000
     42 C31        -12.8250     0.3770     3.6760 c6         1 IGC       0.160300
     43 O12        -12.5890     1.5420     4.4960 oh         1 IGC      -0.699000
     44 C32        -13.4670     0.8150     2.3150 c6         1 IGC       0.138300
     45 O13        -14.7010     1.5300     2.5130 oh         1 IGC      -0.649000
     46 C33        -12.4610     1.6980     1.5090 c6         1 IGC       0.120300
     47 O14        -12.2350     2.9550     2.1980 oh         1 IGC      -0.685000
     48 C34         -7.8340     2.2370    -0.0420 c6         1 IGC       0.153300
     49 O15         -7.6140     3.1590     1.0560 oh         1 IGC      -0.698000
     50 C35         -3.5860     2.9600    -2.3570 c6         1 IGC       0.176300
     51 O16         -4.3790     2.9500    -3.5570 oh         1 IGC      -0.690000
     52 C36         -2.1540     2.4690    -2.6980 c6         1 IGC       0.103300
     53 O17         -1.5830     3.2620    -3.7700 oh         1 IGC      -0.723000
     54 N1           2.2820     0.2480    -1.7030 ns         1 IGC      -0.502900
     55 C37          2.0680    -0.9180    -1.0010 c          1 IGC       0.605100
     56 O18          1.8410    -0.9400     0.2000 o          1 IGC      -0.597100
     57 C38          2.1190    -2.1930    -1.8470 c3         1 IGC      -0.156400
     58 C39          3.4400    -2.9630    -1.6130 c3         1 IGC      -0.066400
     59 C40          3.5320    -4.2700    -2.4300 c3         1 IGC      -0.076400
     60 C41          4.8500    -5.0390    -2.1930 c3         1 IGC      -0.075400
     61 C42          4.9340    -6.3550    -2.9960 c3         1 IGC      -0.075400
     62 C43          6.2480    -7.1300    -2.7530 c3         1 IGC      -0.075400
     63 C44          6.3270    -8.4480    -3.5470 c3         1 IGC      -0.088100
     64 H11A        22.9310    -0.1380     1.5300 hc         1 IGC       0.031367
     65 H12A        22.2310    -1.5130     0.6470 hc         1 IGC       0.031367
     66 H13A        22.1990     0.1160    -0.0700 hc         1 IGC       0.031367
     67 H21         20.7070    -0.7240     2.4910 hc         1 IGC       0.036700
     68 H22A        20.6780     0.8910     1.7820 hc         1 IGC       0.036700
     69 H31A        19.6020    -0.0430    -0.2940 hc         1 IGC       0.037200
     70 H32A        19.6230    -1.6550     0.4230 hc         1 IGC       0.037200
     71 H41         18.1310    -0.8510     2.2790 hc         1 IGC       0.036700
     72 H42         18.1170     0.7640     1.5680 hc         1 IGC       0.036700
     73 H51         17.0490    -0.1680    -0.5130 hc         1 IGC       0.037200
     74 H52         17.0410    -1.7750     0.2160 hc         1 IGC       0.037200
     75 H61         15.5480    -0.9400     2.0530 hc         1 IGC       0.037200
     76 H62         15.5740     0.6750     1.3450 hc         1 IGC       0.037200
     77 H71         14.5070    -0.2380    -0.7490 hc         1 IGC       0.037700
     78 H72         14.4470    -1.8390    -0.0100 hc         1 IGC       0.037700
     79 H81         12.9560    -0.9550     1.8030 hc         1 IGC       0.037200
     80 H82         13.0420     0.6580     1.0950 hc         1 IGC       0.037200
     81 H91         11.9730    -0.2230    -1.0120 hc         1 IGC       0.037700
     82 H92         11.8480    -1.8190    -0.2710 hc         1 IGC       0.037700
     83 H101        10.3640    -0.8790     1.5210 hc         1 IGC       0.037200
     84 H102        10.5180     0.7290     0.8110 hc         1 IGC       0.037200
     85 H111         9.4510    -0.1230    -1.3110 hc         1 IGC       0.038700
     86 H112         9.2510    -1.7080    -0.5620 hc         1 IGC       0.038700
     87 H121         7.7760    -0.6950     1.2000 hc         1 IGC       0.038200
     88 H122         8.0040     0.8990     0.4780 hc         1 IGC       0.038200
     89 H131         6.9570     0.0530    -1.6590 hc         1 IGC       0.047200
     90 H132         6.6540    -1.4960    -0.8840 hc         1 IGC       0.047200
     91 H14          5.0440    -0.4760     0.7020 ha         1 IGC       0.172000
     92 H15          5.2170     1.7850    -1.3990 ha         1 IGC       0.178000
     93 H16          3.1890     1.1240     0.8290 h1         1 IGC       0.111700
     94 HO1          4.4900     3.1060     0.8820 ho         1 IGC       0.436000
     95 H17          2.6350     2.2750    -1.9440 h1         1 IGC       0.043700
     96 H181         0.6570     1.4570     0.2430 h1         1 IGC       0.062700
     97 H182         1.0740     3.1200    -0.2220 h1         1 IGC       0.062700
     98 H19         -1.2360     3.5390    -1.0220 h2         1 IGC       0.032700
     99 H20         -3.1410     3.1340     0.3890 h1         1 IGC       0.054700
    100 H211        -4.6120     1.6100     1.6110 h1         1 IGC       0.032700
    101 H212        -3.8800     0.1960     0.8300 h1         1 IGC       0.032700
    102 HO4         -3.0370     0.4950     2.9410 ho         1 IGC       0.506000
    103 H22         -4.2680     1.0560    -1.5870 h1         1 IGC       0.082700
    104 H23         -6.1080     0.9500     0.3220 h2         1 IGC       0.024700
    105 H24         -7.2320    -0.9640    -0.4640 h1         1 IGC       0.048700
    106 H251        -8.4400    -2.1790    -2.2780 h1         1 IGC       0.037700
    107 H252        -8.1630    -0.8230    -3.3800 h1         1 IGC       0.037700
    108 HO7         -6.5920    -2.4490    -3.7160 ho         1 IGC       0.506000
    109 H26         -9.6580    -0.7170    -0.5170 h1         1 IGC       0.034700
    110 HO8        -10.3940     1.4280    -1.5350 ho         1 IGC       0.510000
    111 H27         -8.5120     0.5880     1.1900 h1         1 IGC       0.074700
    112 H28        -11.3090     0.0100     0.7030 h2         1 IGC       0.015700
    113 H29        -11.7060    -1.2440     2.7290 h1         1 IGC       0.037700
    114 H301       -10.5160     0.0080     5.2620 h1         1 IGC       0.042200
    115 H302       -11.4250    -1.5080     5.1930 h1         1 IGC       0.042200
    116 H11         -9.0890    -1.7860     5.1950 ho         1 IGC       0.506000
    117 H31        -13.5020    -0.3220     4.1880 h1         1 IGC       0.043700
    118 H12        -12.3310     2.2430     3.8360 ho         1 IGC       0.531000
    119 H32        -13.6700    -0.0940     1.7290 h1         1 IGC       0.034700
    120 H13        -14.4360     2.4660     2.6600 ho         1 IGC       0.456000
    121 H33        -12.8870     1.8920     0.5140 h1         1 IGC       0.025700
    122 H1         -11.4470     3.3590     1.7550 ho         1 IGC       0.521000
    123 H34         -8.2210     2.7950    -0.9080 h1         1 IGC       0.075700
    124 H2          -6.9160     3.7850     0.7520 ho         1 IGC       0.518000
    125 H35         -3.5070     3.9930    -1.9840 h1         1 IGC       0.047700
    126 H3          -3.7400     3.2160    -4.2620 ho         1 IGC       0.515000
    127 H36         -2.2190     1.4160    -3.0130 h1         1 IGC       0.067700
    128 H4          -0.6210     3.0350    -3.7950 ho         1 IGC       0.520000
    129 HN1          2.4400     0.1510    -2.6980 hn         1 IGC       0.311500
    130 H381         1.2810    -2.8400    -1.5590 hc         1 IGC       0.054700
    131 H382         2.0480    -1.9420    -2.9120 hc         1 IGC       0.054700
    132 H391         4.2850    -2.3130    -1.8730 hc         1 IGC       0.055200
    133 H392         3.5370    -3.1980    -0.5450 hc         1 IGC       0.055200
    134 H401         2.6850    -4.9170    -2.1690 hc         1 IGC       0.034700
    135 H402         3.4380    -4.0350    -3.4980 hc         1 IGC       0.034700
    136 H411         5.6970    -4.3960    -2.4640 hc         1 IGC       0.040200
    137 H412         4.9480    -5.2630    -1.1230 hc         1 IGC       0.040200
    138 H421         4.0840    -6.9950    -2.7270 hc         1 IGC       0.036200
    139 H422         4.8400    -6.1310    -4.0660 hc         1 IGC       0.036200
    140 H431         7.1000    -6.4960    -3.0290 hc         1 IGC       0.037200
    141 H432         6.3460    -7.3520    -1.6830 hc         1 IGC       0.037200
    142 H441         5.5080    -9.1210    -3.2660 hc         1 IGC       0.031033
    143 H442         6.2640    -8.2560    -4.6260 hc         1 IGC       0.031033
    144 H443         7.2760    -8.9590    -3.3450 hc         1 IGC       0.031033
@<TRIPOS>BOND
     1     1     2 1   
     2     1    64 1   
     3     1    65 1   
     4     1    66 1   
     5     2     3 1   
     6     2    67 1   
     7     2    68 1   
     8     3     4 1   
     9     3    69 1   
    10     3    70 1   
    11     4     5 1   
    12     4    71 1   
    13     4    72 1   
    14     5     6 1   
    15     5    73 1   
    16     5    74 1   
    17     6     7 1   
    18     6    75 1   
    19     6    76 1   
    20     7     8 1   
    21     7    77 1   
    22     7    78 1   
    23     8     9 1   
    24     8    79 1   
    25     8    80 1   
    26     9    10 1   
    27     9    81 1   
    28     9    82 1   
    29    10    11 1   
    30    10    83 1   
    31    10    84 1   
    32    11    12 1   
    33    11    85 1   
    34    11    86 1   
    35    12    13 1   
    36    12    87 1   
    37    12    88 1   
    38    13    14 1   
    39    13    89 1   
    40    13    90 1   
    41    14    15 2   
    42    14    91 1   
    43    15    16 1   
    44    15    92 1   
    45    16    17 1   
    46    16    18 1   
    47    16    93 1   
    48    17    94 1   
    49    18    19 1   
    50    18    54 1   
    51    18    95 1   
    52    19    20 1   
    53    19    96 1   
    54    19    97 1   
    55    20    21 1   
    56    21    22 1   
    57    21    52 1   
    58    21    98 1   
    59    22    23 1   
    60    23    24 1   
    61    23    26 1   
    62    23    99 1   
    63    24    25 1   
    64    24   100 1   
    65    24   101 1   
    66    25   102 1   
    67    26    27 1   
    68    26    50 1   
    69    26   103 1   
    70    27    28 1   
    71    28    29 1   
    72    28    48 1   
    73    28   104 1   
    74    29    30 1   
    75    30    31 1   
    76    30    33 1   
    77    30   105 1   
    78    31    32 1   
    79    31   106 1   
    80    31   107 1   
    81    32   108 1   
    82    33    34 1   
    83    33    35 1   
    84    33   109 1   
    85    34   110 1   
    86    35    36 1   
    87    35    48 1   
    88    35   111 1   
    89    36    37 1   
    90    37    38 1   
    91    37    46 1   
    92    37   112 1   
    93    38    39 1   
    94    39    40 1   
    95    39    42 1   
    96    39   113 1   
    97    40    41 1   
    98    40   114 1   
    99    40   115 1   
   100    41   116 1   
   101    42    43 1   
   102    42    44 1   
   103    42   117 1   
   104    43   118 1   
   105    44    45 1   
   106    44    46 1   
   107    44   119 1   
   108    45   120 1   
   109    46    47 1   
   110    46   121 1   
   111    47   122 1   
   112    48    49 1   
   113    48   123 1   
   114    49   124 1   
   115    50    51 1   
   116    50    52 1   
   117    50   125 1   
   118    51   126 1   
   119    52    53 1   
   120    52   127 1   
   121    53   128 1   
   122    54    55 1   
   123    54   129 1   
   124    55    56 2   
   125    55    57 1   
   126    57    58 1   
   127    57   130 1   
   128    57   131 1   
   129    58    59 1   
   130    58   132 1   
   131    58   133 1   
   132    59    60 1   
   133    59   134 1   
   134    59   135 1   
   135    60    61 1   
   136    60   136 1   
   137    60   137 1   
   138    61    62 1   
   139    61   138 1   
   140    61   139 1   
   141    62    63 1   
   142    62   140 1   
   143    62   141 1   
   144    63   142 1   
   145    63   143 1   
   146    63   144 1   
@<TRIPOS>SUBSTRUCTURE
     1 IGC         1 TEMP              0 ****  ****    0 ROOT
