@<TRIPOS>MOLECULE
IGE
   42    45     1     0     0
SMALL
No Charge or Current Charge


@<TRIPOS>ATOM
      1 C10         29.8380   -49.0200   -10.8840 cc         1 IGE       0.267300
      2 C11         29.2090   -46.0760   -12.6170 c3         1 IGE       0.108000
      3 O14         26.8400   -46.5720   -14.3100 o          1 IGE      -0.486000
      4 C15         32.5230   -48.5400    -8.5530 ca         1 IGE      -0.119500
      5 C16         26.7410   -44.6370   -16.7890 ca         1 IGE      -0.045000
      6 C17         29.0570   -42.9740   -16.6070 ca         1 IGE      -0.045000
      7 C18         28.5920   -49.7540   -11.2910 c3         1 IGE      -0.115400
      8 C19         32.3970   -49.4600    -7.4870 ca         1 IGE      -0.090000
      9 C20         33.6090   -47.6340    -8.5390 ca         1 IGE      -0.090000
     10 C21         26.9920   -43.6430   -17.7600 ca         1 IGE      -0.098000
     11 C22         28.1410   -42.8180   -17.6700 ca         1 IGE      -0.098000
     12 C23         33.3310   -49.4750    -6.4360 ca         1 IGE      -0.112500
     13 C24         34.5420   -47.6510    -7.4870 ca         1 IGE      -0.112500
     14 C25         34.4050   -48.5700    -6.4360 ca         1 IGE      -0.102000
     15 N1          28.8320   -45.4120   -13.8780 n          1 IGE      -0.395400
     16 C2          27.6690   -45.7170   -14.5850 c          1 IGE       0.587600
     17 C3          29.5580   -44.3610   -14.4370 c          1 IGE       0.587600
     18 N4          31.5540   -47.6770   -10.7550 na         1 IGE      -0.284500
     19 C5          31.5390   -48.5230    -9.6610 cd         1 IGE       0.463000
     20 N6          30.4980   -49.3420    -9.7340 nc         1 IGE      -0.673000
     21 C7          30.4610   -47.9940   -11.5430 cd         1 IGE      -0.209300
     22 C8          28.7910   -43.9670   -15.6540 ca         1 IGE      -0.147600
     23 C9          27.6640   -44.7760   -15.7420 ca         1 IGE      -0.147600
     24 C12         30.1070   -47.3080   -12.8380 c3         1 IGE      -0.021100
     25 O13         30.5980   -43.8740   -14.0160 o          1 IGE      -0.486000
     26 H1          29.7340   -45.3580   -11.9720 h1         1 IGE       0.070200
     27 H2          28.2990   -46.3850   -12.0860 h1         1 IGE       0.070200
     28 H3          25.8600   -45.2730   -16.8500 ha         1 IGE       0.138500
     29 H4          29.9410   -42.3430   -16.5310 ha         1 IGE       0.138500
     30 H5          28.2070   -50.3760   -10.4750 hc         1 IGE       0.046367
     31 H6          27.8040   -49.0480   -11.5770 hc         1 IGE       0.046367
     32 H7          28.7930   -50.4050   -12.1500 hc         1 IGE       0.046367
     33 H8          31.5730   -50.1700    -7.4660 ha         1 IGE       0.120000
     34 H9          33.7410   -46.9110    -9.3410 ha         1 IGE       0.120000
     35 H10         26.2950   -43.5100   -18.5850 ha         1 IGE       0.123000
     36 H11         28.3190   -42.0570   -18.4270 ha         1 IGE       0.123000
     37 H12         33.2220   -50.1880    -5.6230 ha         1 IGE       0.114500
     38 H13         35.3740   -46.9490    -7.4880 ha         1 IGE       0.114500
     39 H14         35.1280   -48.5820    -5.6230 ha         1 IGE       0.114000
     40 H15         32.2500   -46.9630   -10.9310 hn         1 IGE       0.353000
     41 H17         31.0180   -46.9970   -13.3630 hc         1 IGE       0.063200
     42 H18         29.5910   -48.0100   -13.5050 hc         1 IGE       0.063200
@<TRIPOS>BOND
     1     1     7 1   
     2     1    20 1   
     3     1    21 2   
     4     2    15 1   
     5     2    24 1   
     6     2    26 1   
     7     2    27 1   
     8     3    16 2   
     9     4     8 ar  
    10     4     9 ar  
    11     4    19 1   
    12     5    10 ar  
    13     5    23 ar  
    14     5    28 1   
    15     6    11 ar  
    16     6    22 ar  
    17     6    29 1   
    18     7    30 1   
    19     7    31 1   
    20     7    32 1   
    21     8    12 ar  
    22     8    33 1   
    23     9    13 ar  
    24     9    34 1   
    25    10    11 ar  
    26    10    35 1   
    27    11    36 1   
    28    12    14 ar  
    29    12    37 1   
    30    13    14 ar  
    31    13    38 1   
    32    14    39 1   
    33    15    16 1   
    34    15    17 1   
    35    16    23 1   
    36    17    22 1   
    37    17    25 2   
    38    18    19 1   
    39    18    21 1   
    40    18    40 1   
    41    19    20 2   
    42    21    24 1   
    43    22    23 ar  
    44    24    41 1   
    45    24    42 1   
@<TRIPOS>SUBSTRUCTURE
     1 IGE         1 TEMP              0 ****  ****    0 ROOT
