@<TRIPOS>MOLECULE
IGE
   42    45     1     0     0
SMALL
abcg2


@<TRIPOS>ATOM
      1 C10         29.8120   -49.0040   -10.9400 cc         1 IGE       0.267300
      2 C11         29.3430   -45.9830   -12.5440 c3         1 IGE       0.108000
      3 O14         26.9040   -46.4320   -14.0290 o          1 IGE      -0.486000
      4 C15         32.4710   -48.5110    -8.6130 ca         1 IGE      -0.119500
      5 C16         26.7330   -44.6690   -16.6050 ca         1 IGE      -0.045000
      6 C17         29.1140   -43.1340   -16.6600 ca         1 IGE      -0.045000
      7 C18         28.5690   -49.7010   -11.3840 c3         1 IGE      -0.115400
      8 C19         32.4390   -49.5340    -7.6610 ca         1 IGE      -0.090000
      9 C20         33.4330   -47.5080    -8.4830 ca         1 IGE      -0.090000
     10 C21         26.9860   -43.7690   -17.6390 ca         1 IGE      -0.098000
     11 C22         28.1560   -43.0150   -17.6660 ca         1 IGE      -0.098000
     12 C23         33.3470   -49.5550    -6.6160 ca         1 IGE      -0.112500
     13 C24         34.3420   -47.5320    -7.4360 ca         1 IGE      -0.112500
     14 C25         34.3050   -48.5540    -6.4970 ca         1 IGE      -0.102000
     15 N1          28.9080   -45.3280   -13.7580 n          1 IGE      -0.395400
     16 C2          27.7190   -45.6300   -14.4060 c          1 IGE       0.587600
     17 C3          29.6540   -44.3850   -14.4480 c          1 IGE       0.587600
     18 N4          31.5360   -47.6900   -10.7690 na         1 IGE      -0.284500
     19 C5          31.4970   -48.5180    -9.7010 cd         1 IGE       0.463000
     20 N6          30.4600   -49.3230    -9.7850 nc         1 IGE      -0.673000
     21 C7          30.4740   -47.9840   -11.5780 cd         1 IGE      -0.209300
     22 C8          28.8520   -44.0260   -15.6430 ca         1 IGE      -0.147600
     23 C9          27.6870   -44.7760   -15.6160 ca         1 IGE      -0.147600
     24 C12         30.1550   -47.2510   -12.8290 c3         1 IGE      -0.021100
     25 O13         30.7320   -43.9680   -14.1120 o          1 IGE      -0.486000
     26 H1          29.9290   -45.2730   -11.9610 h1         1 IGE       0.070200
     27 H2          28.4580   -46.2310   -11.9580 h1         1 IGE       0.070200
     28 H3          25.8230   -45.2550   -16.5840 ha         1 IGE       0.138500
     29 H4          30.0230   -42.5480   -16.6820 ha         1 IGE       0.138500
     30 H5          28.2480   -50.4160   -10.6280 hc         1 IGE       0.046367
     31 H6          27.7490   -49.0010   -11.5500 hc         1 IGE       0.046367
     32 H7          28.7180   -50.2480   -12.3160 hc         1 IGE       0.046367
     33 H8          31.7000   -50.3190    -7.7500 ha         1 IGE       0.120000
     34 H9          33.4850   -46.6870    -9.1880 ha         1 IGE       0.120000
     35 H10         26.2640   -43.6530   -18.4360 ha         1 IGE       0.123000
     36 H11         28.3240   -42.3250   -18.4820 ha         1 IGE       0.123000
     37 H12         33.3080   -50.3580    -5.8920 ha         1 IGE       0.114500
     38 H13         35.0790   -46.7450    -7.3520 ha         1 IGE       0.114500
     39 H14         35.0140   -48.5720    -5.6800 ha         1 IGE       0.114000
     40 H15         32.2400   -46.9960   -10.9710 hn         1 IGE       0.353000
     41 H17         31.0670   -46.9890   -13.3710 hc         1 IGE       0.063200
     42 H18         29.5760   -47.9080   -13.4810 hc         1 IGE       0.063200
@<TRIPOS>BOND
     1     1     7 1   
     2     1    20 1   
     3     1    21 2   
     4     2    15 1   
     5     2    24 1   
     6     2    26 1   
     7     2    27 1   
     8     3    16 2   
     9     4     8 ar  
    10     4     9 ar  
    11     4    19 1   
    12     5    10 ar  
    13     5    23 ar  
    14     5    28 1   
    15     6    11 ar  
    16     6    22 ar  
    17     6    29 1   
    18     7    30 1   
    19     7    31 1   
    20     7    32 1   
    21     8    12 ar  
    22     8    33 1   
    23     9    13 ar  
    24     9    34 1   
    25    10    11 ar  
    26    10    35 1   
    27    11    36 1   
    28    12    14 ar  
    29    12    37 1   
    30    13    14 ar  
    31    13    38 1   
    32    14    39 1   
    33    15    16 1   
    34    15    17 1   
    35    16    23 1   
    36    17    22 1   
    37    17    25 2   
    38    18    19 1   
    39    18    21 1   
    40    18    40 1   
    41    19    20 2   
    42    21    24 1   
    43    22    23 ar  
    44    24    41 1   
    45    24    42 1   
@<TRIPOS>SUBSTRUCTURE
     1 IGE         1 TEMP              0 ****  ****    0 ROOT
