@<TRIPOS>MOLECULE
IGF
   23    23     1     0     0
SMALL
No Charge or Current Charge


@<TRIPOS>ATOM
      1 C1          -1.8030    -0.0990    -2.1100 c3         1 IGF       0.180100
      2 N1          -2.3740    -0.6970    -0.8880 n7         1 IGF      -0.860300
      3 S1          -1.7520    -0.2170     0.5850 sy         1 IGF       1.173600
      4 O1          -2.3070     1.1140     0.8330 o          1 IGF      -0.536500
      5 O2          -1.9850    -1.3510     1.4850 o          1 IGF      -0.536500
      6 C2           0.0270    -0.1110     0.2690 cc         1 IGF      -0.348500
      7 C3           0.7370     1.0540     0.0180 cd         1 IGF      -0.093300
      8 S2           2.4660     0.7450    -0.2530 ss         1 IGF       0.226000
      9 C4           2.2000    -0.9850    -0.0210 cd         1 IGF      -0.210300
     10 C5           0.8840    -1.2500     0.2400 cc         1 IGF      -0.054000
     11 C7           3.3400    -1.9650    -0.1190 c3         1 IGF      -0.021800
     12 C6           0.2370     2.4770    -0.0450 c3         1 IGF      -0.041800
     13 H1          -1.8530     0.9980    -2.0800 h1         1 IGF       0.050700
     14 H2          -0.7540    -0.3930    -2.2480 h1         1 IGF       0.050700
     15 H3          -2.3580    -0.4350    -2.9960 h1         1 IGF       0.050700
     16 H4          -3.3400    -0.3910    -0.7850 hn         1 IGF       0.476000
     17 H5           0.5020    -2.2550     0.4120 ha         1 IGF       0.158000
     18 H6           3.7940    -1.9410    -1.1170 hc         1 IGF       0.050033
     19 H7           4.1230    -1.7330     0.6120 hc         1 IGF       0.050033
     20 H8           3.0020    -2.9920     0.0690 hc         1 IGF       0.050033
     21 H9          -0.1370     2.8070     0.9310 hc         1 IGF       0.062033
     22 H10          1.0350     3.1680    -0.3390 hc         1 IGF       0.062033
     23 H11         -0.5730     2.5860    -0.7750 hc         1 IGF       0.062033
@<TRIPOS>BOND
     1     1     2 1   
     2     1    13 1   
     3     1    14 1   
     4     1    15 1   
     5     2     3 1   
     6     2    16 1   
     7     3     4 2   
     8     3     5 2   
     9     3     6 1   
    10     6     7 2   
    11     6    10 1   
    12     7     8 1   
    13     7    12 1   
    14     8     9 1   
    15     9    10 2   
    16     9    11 1   
    17    10    17 1   
    18    11    18 1   
    19    11    19 1   
    20    11    20 1   
    21    12    21 1   
    22    12    22 1   
    23    12    23 1   
@<TRIPOS>SUBSTRUCTURE
     1 IGF         1 TEMP              0 ****  ****    0 ROOT
