@<TRIPOS>MOLECULE
IGF
   23    23     1     0     0
SMALL
abcg2


@<TRIPOS>ATOM
      1 C1          -2.0250    -0.7850    -2.1150 c3         1 IGF       0.180100
      2 N1          -2.3940     0.0600    -0.9870 n7         1 IGF      -0.860300
      3 S1          -1.6770    -0.2230     0.4670 sy         1 IGF       1.173600
      4 O1          -2.1600     0.8120     1.3650 o          1 IGF      -0.536500
      5 O2          -1.9120    -1.6230     0.7820 o          1 IGF      -0.536500
      6 C2           0.0580    -0.0380     0.2510 cc         1 IGF      -0.348500
      7 C3           0.6800     1.1740     0.1280 cd         1 IGF      -0.093300
      8 S2           2.3620     0.9220    -0.0970 ss         1 IGF       0.226000
      9 C4           2.2280    -0.7970    -0.0300 cd         1 IGF      -0.210300
     10 C5           0.9320    -1.1600     0.1570 cc         1 IGF      -0.054000
     11 C7           3.4270    -1.6720    -0.1600 c3         1 IGF      -0.021800
     12 C6           0.1230     2.5580     0.1730 c3         1 IGF      -0.041800
     13 H1          -0.9660    -0.7210    -2.3780 h1         1 IGF       0.050700
     14 H2          -2.2770    -1.8210    -1.9050 h1         1 IGF       0.050700
     15 H3          -2.6110    -0.4620    -2.9710 h1         1 IGF       0.050700
     16 H4          -2.4350     1.0480    -1.2080 hn         1 IGF       0.476000
     17 H5           0.6110    -2.1880     0.2340 ha         1 IGF       0.158000
     18 H6           3.9420    -1.5170    -1.1080 hc         1 IGF       0.050033
     19 H7           4.1470    -1.4900     0.6390 hc         1 IGF       0.050033
     20 H8           3.1270    -2.7170    -0.1090 hc         1 IGF       0.050033
     21 H9          -0.2360     2.8030     1.1710 hc         1 IGF       0.062033
     22 H10          0.8770     3.2920    -0.1020 hc         1 IGF       0.062033
     23 H11         -0.7100     2.6760    -0.5200 hc         1 IGF       0.062033
@<TRIPOS>BOND
     1     1     2 1   
     2     1    13 1   
     3     1    14 1   
     4     1    15 1   
     5     2     3 1   
     6     2    16 1   
     7     3     4 2   
     8     3     5 2   
     9     3     6 1   
    10     6     7 2   
    11     6    10 1   
    12     7     8 1   
    13     7    12 1   
    14     8     9 1   
    15     9    10 2   
    16     9    11 1   
    17    10    17 1   
    18    11    18 1   
    19    11    19 1   
    20    11    20 1   
    21    12    21 1   
    22    12    22 1   
    23    12    23 1   
@<TRIPOS>SUBSTRUCTURE
     1 IGF         1 TEMP              0 ****  ****    0 ROOT
