@<TRIPOS>MOLECULE
IGI
   48    51     1     0     0
SMALL
No Charge or Current Charge


@<TRIPOS>ATOM
      1 C10         92.5940    -9.6030    12.8720 cc         1 IGI       0.525300
      2 C13         93.9480   -11.1850    11.4050 c3         1 IGI      -0.101700
      3 C16         95.0850   -11.7610     7.9440 cc         1 IGI      -0.227000
      4 C17         94.1570   -12.7420     8.1640 cd         1 IGI       0.259300
      5 C19         95.9800    -9.8880     9.4060 c3         1 IGI       0.057900
      6 C20         93.8460   -13.7240     7.0450 c5         1 IGI      -0.086000
      7 C21         92.3290   -13.7430     6.7280 c5         1 IGI      -0.074400
      8 C22         92.2100   -15.0220     5.8500 c5         1 IGI      -0.080400
      9 C23         93.3350   -15.9770     6.3730 c5         1 IGI      -0.080400
     10 C24         94.0280   -15.1870     7.5210 c5         1 IGI      -0.074400
     11 N1          91.2150    -8.8430    16.9970 nc         1 IGI      -0.649000
     12 C2          92.2330    -7.9010    16.8320 cc         1 IGI       0.283900
     13 C3          92.9990    -7.7290    15.6760 cd         1 IGI      -0.090300
     14 C4          90.9520    -9.6470    15.9680 cd         1 IGI       0.404300
     15 C5          89.8560   -10.6610    16.1490 c3         1 IGI      -0.141400
     16 C6          94.0980    -6.7020    15.5200 c3         1 IGI      -0.040800
     17 C7          91.6950    -9.5240    14.7610 cd         1 IGI      -0.121000
     18 N8          92.6730    -8.5980    14.6390 na         1 IGI       0.310400
     19 N9          93.2860    -8.6140    13.4270 nd         1 IGI      -0.597100
     20 N11         91.6140   -10.1980    13.6310 nc         1 IGI      -0.375300
     21 C12         92.8570   -10.0890    11.4740 c3         1 IGI      -0.080700
     22 C14         94.2260   -11.6520    10.0000 cc         1 IGI       0.402800
     23 N15         95.1280   -11.0560     9.1290 na         1 IGI      -0.164500
     24 N18         93.6210   -12.6810     9.4290 nd         1 IGI      -0.671000
     25 H34         94.8720   -10.8100    11.8610 hc         1 IGI       0.071200
     26 H35         93.6340   -12.0400    12.0150 hc         1 IGI       0.071200
     27 H36         95.6870   -11.5240     7.0760 h4         1 IGI       0.155000
     28 H37         96.5490    -9.6200     8.5070 h1         1 IGI       0.052033
     29 H38         95.3560    -9.0360     9.7030 h1         1 IGI       0.052033
     30 H39         96.6800   -10.1260    10.2170 h1         1 IGI       0.052033
     31 H40         94.4390   -13.5200     6.1440 hc         1 IGI       0.064700
     32 H41         91.7190   -13.8310     7.6360 hc         1 IGI       0.044700
     33 H42         91.9980   -12.8420     6.2000 hc         1 IGI       0.044700
     34 H43         91.2150   -15.4740     5.9290 hc         1 IGI       0.039200
     35 H44         92.3670   -14.7870     4.7910 hc         1 IGI       0.039200
     36 H45         92.9340   -16.9330     6.7280 hc         1 IGI       0.039200
     37 H46         94.0460   -16.2100     5.5720 hc         1 IGI       0.039200
     38 H47         95.0830   -15.4620     7.6400 hc         1 IGI       0.044700
     39 H48         93.5330   -15.3730     8.4820 hc         1 IGI       0.044700
     40 H25         92.3940    -7.2830    17.7050 h4         1 IGI       0.038100
     41 H27         89.4070   -10.6070    17.1480 hc         1 IGI       0.065033
     42 H28         89.0590   -10.5020    15.4150 hc         1 IGI       0.065033
     43 H26         90.2450   -11.6760    16.0110 hc         1 IGI       0.065033
     44 H30         95.0610    -7.1830    15.3080 hc         1 IGI       0.063367
     45 H29         93.8790    -6.0120    14.6970 hc         1 IGI       0.063367
     46 H31         94.2210    -6.1040    16.4310 hc         1 IGI       0.063367
     47 H33         91.9280   -10.4770    11.0410 hc         1 IGI       0.067700
     48 H32         93.1550    -9.2390    10.8480 hc         1 IGI       0.067700
@<TRIPOS>BOND
     1     1    19 2   
     2     1    20 1   
     3     1    21 1   
     4     2    21 1   
     5     2    22 1   
     6     2    25 1   
     7     2    26 1   
     8     3     4 2   
     9     3    23 1   
    10     3    27 1   
    11     4     6 1   
    12     4    24 1   
    13     5    23 1   
    14     5    28 1   
    15     5    29 1   
    16     5    30 1   
    17     6     7 1   
    18     6    10 1   
    19     6    31 1   
    20     7     8 1   
    21     7    32 1   
    22     7    33 1   
    23     8     9 1   
    24     8    34 1   
    25     8    35 1   
    26     9    10 1   
    27     9    36 1   
    28     9    37 1   
    29    10    38 1   
    30    10    39 1   
    31    11    12 1   
    32    11    14 2   
    33    12    13 2   
    34    12    40 1   
    35    13    16 1   
    36    13    18 1   
    37    14    15 1   
    38    14    17 1   
    39    15    41 1   
    40    15    42 1   
    41    15    43 1   
    42    16    44 1   
    43    16    45 1   
    44    16    46 1   
    45    17    18 1   
    46    17    20 2   
    47    18    19 1   
    48    21    47 1   
    49    21    48 1   
    50    22    23 1   
    51    22    24 2   
@<TRIPOS>SUBSTRUCTURE
     1 IGI         1 TEMP              0 ****  ****    0 ROOT
