@<TRIPOS>MOLECULE
IGI
   48    51     1     0     0
SMALL
abcg2


@<TRIPOS>ATOM
      1 C10         92.7210    -9.3320    12.8570 cc         1 IGI       0.525300
      2 C13         93.4660   -11.3120    11.5350 c3         1 IGI      -0.101700
      3 C16         94.9580   -12.2350     8.3570 cc         1 IGI      -0.227000
      4 C17         93.7410   -12.8530     8.2980 cd         1 IGI       0.259300
      5 C19         96.1010   -10.7930    10.0530 c3         1 IGI       0.057900
      6 C20         93.1710   -13.7140     7.2250 c5         1 IGI      -0.086000
      7 C21         92.9570   -15.1760     7.6390 c5         1 IGI      -0.074400
      8 C22         92.7520   -15.9260     6.3140 c5         1 IGI      -0.080400
      9 C23         93.3920   -15.0340     5.2230 c5         1 IGI      -0.080400
     10 C24         94.0330   -13.8620     5.9740 c5         1 IGI      -0.074400
     11 N1          90.9840    -8.3360    16.7420 nc         1 IGI      -0.649000
     12 C2          92.1820    -7.7100    16.8220 cc         1 IGI       0.283900
     13 C3          93.1240    -7.7170    15.8350 cd         1 IGI      -0.090300
     14 C4          90.6660    -9.0050    15.6680 cd         1 IGI       0.404300
     15 C5          89.3520    -9.7010    15.5600 c3         1 IGI      -0.141400
     16 C6          94.4480    -7.0500    15.8810 c3         1 IGI      -0.040800
     17 C7          91.5840    -9.0690    14.5910 cd         1 IGI      -0.121000
     18 N8          92.7740    -8.4190    14.7210 na         1 IGI       0.310400
     19 N9          93.5040    -8.5820    13.6200 nd         1 IGI      -0.597100
     20 N11         91.5400    -9.6560    13.4050 nc         1 IGI      -0.375300
     21 C12         93.1470    -9.8090    11.5150 c3         1 IGI      -0.080700
     22 C14         93.8280   -11.8480    10.1940 cc         1 IGI       0.402800
     23 N15         95.0040   -11.6020     9.5720 na         1 IGI      -0.164500
     24 N18         93.0490   -12.5980     9.4510 nd         1 IGI      -0.671000
     25 H34         94.2630   -11.5040    12.2590 hc         1 IGI       0.071200
     26 H35         92.5910   -11.8630    11.8790 hc         1 IGI       0.071200
     27 H36         95.7840   -12.1910     7.6650 h4         1 IGI       0.155000
     28 H37         97.0300   -11.1500     9.6170 h1         1 IGI       0.052033
     29 H38         95.9710    -9.7440     9.7860 h1         1 IGI       0.052033
     30 H39         96.1830   -10.8710    11.1350 h1         1 IGI       0.052033
     31 H40         92.1990   -13.3010     6.9270 hc         1 IGI       0.064700
     32 H41         93.8590   -15.5340     8.1450 hc         1 IGI       0.044700
     33 H42         92.1260   -15.3010     8.3350 hc         1 IGI       0.044700
     34 H43         93.2010   -16.9190     6.3470 hc         1 IGI       0.039200
     35 H44         91.6890   -16.0720     6.1130 hc         1 IGI       0.039200
     36 H45         94.1170   -15.5740     4.6140 hc         1 IGI       0.039200
     37 H46         92.6250   -14.6630     4.5410 hc         1 IGI       0.039200
     38 H47         94.0820   -12.9500     5.3760 hc         1 IGI       0.044700
     39 H48         95.0560   -14.1160     6.2670 hc         1 IGI       0.044700
     40 H25         92.3880    -7.1740    17.7400 h4         1 IGI       0.038100
     41 H27         88.7760    -9.5680    16.4730 hc         1 IGI       0.065033
     42 H28         88.7740    -9.3120    14.7200 hc         1 IGI       0.065033
     43 H26         89.4910   -10.7690    15.3840 hc         1 IGI       0.065033
     44 H30         95.2550    -7.7710    15.7500 hc         1 IGI       0.063367
     45 H29         94.5430    -6.3050    15.0890 hc         1 IGI       0.063367
     46 H31         94.5790    -6.5530    16.8390 hc         1 IGI       0.063367
     47 H33         92.3490    -9.6190    10.7950 hc         1 IGI       0.067700
     48 H32         94.0180    -9.2360    11.1950 hc         1 IGI       0.067700
@<TRIPOS>BOND
     1     1    19 2   
     2     1    20 1   
     3     1    21 1   
     4     2    21 1   
     5     2    22 1   
     6     2    25 1   
     7     2    26 1   
     8     3     4 2   
     9     3    23 1   
    10     3    27 1   
    11     4     6 1   
    12     4    24 1   
    13     5    23 1   
    14     5    28 1   
    15     5    29 1   
    16     5    30 1   
    17     6     7 1   
    18     6    10 1   
    19     6    31 1   
    20     7     8 1   
    21     7    32 1   
    22     7    33 1   
    23     8     9 1   
    24     8    34 1   
    25     8    35 1   
    26     9    10 1   
    27     9    36 1   
    28     9    37 1   
    29    10    38 1   
    30    10    39 1   
    31    11    12 1   
    32    11    14 2   
    33    12    13 2   
    34    12    40 1   
    35    13    16 1   
    36    13    18 1   
    37    14    15 1   
    38    14    17 1   
    39    15    41 1   
    40    15    42 1   
    41    15    43 1   
    42    16    44 1   
    43    16    45 1   
    44    16    46 1   
    45    17    18 1   
    46    17    20 2   
    47    18    19 1   
    48    21    47 1   
    49    21    48 1   
    50    22    23 1   
    51    22    24 2   
@<TRIPOS>SUBSTRUCTURE
     1 IGI         1 TEMP              0 ****  ****    0 ROOT
