@<TRIPOS>MOLECULE
IGJ
   49    53     1     0     0
SMALL
No Charge or Current Charge


@<TRIPOS>ATOM
      1 C1          48.7780    17.8550    32.2580 c          1 IGJ       0.605000
      2 C2          46.2590    18.0360    32.5150 c5         1 IGJ       0.085700
      3 C3          45.6760    17.2090    33.7040 c5         1 IGJ       0.150800
      4 N6          48.3840    13.5920    30.5550 nb         1 IGJ      -0.251000
      5 C7          47.0950    13.9530    30.7680 ca         1 IGJ       0.390900
      6 C8          44.7830    12.8390    30.7180 ca         1 IGJ       0.315000
      7 C9          44.1790    13.4300    31.8430 ca         1 IGJ      -0.132000
      8 C10         42.7950    13.3170    32.0610 ca         1 IGJ      -0.055000
      9 C11         42.2040    13.9330    33.1780 ca         1 IGJ      -0.064000
     10 C12         40.8190    13.7950    33.3570 ca         1 IGJ      -0.169000
     11 C13         40.0810    13.0520    32.4230 ca         1 IGJ       0.342900
     12 C14         41.9820    12.5830    31.1610 ca         1 IGJ       0.246000
     13 C15         42.5990    11.9720    30.0540 ca         1 IGJ      -0.062000
     14 C16         43.9870    12.0880    29.8220 ca         1 IGJ      -0.108300
     15 C19         48.9470    15.8240    31.1620 ca         1 IGJ      -0.157400
     16 F           44.7690    19.2560    31.0300 f          1 IGJ      -0.253000
     17 C5          45.1420    17.9640    31.4180 c5         1 IGJ       0.174300
     18 C4          43.9590    17.2550    32.1550 c5         1 IGJ       0.127800
     19 N2          44.2140    17.4380    33.6100 n7         1 IGJ      -0.875400
     20 N1          47.4910    17.3350    32.0380 n          1 IGJ      -0.368300
     21 O           49.0590    18.9250    32.7770 o          1 IGJ      -0.542000
     22 C6          47.6080    16.0640    31.3990 ca         1 IGJ       0.222900
     23 N           49.6710    16.9060    31.7340 n          1 IGJ      -0.276000
     24 C           51.1020    17.1730    31.5110 c3         1 IGJ       0.107300
     25 C18         49.3340    14.5260    30.7980 ca         1 IGJ       0.163900
     26 N3          46.6460    15.1510    31.2070 nb         1 IGJ      -0.227000
     27 N4          46.1610    12.9610    30.4990 nu         1 IGJ      -0.926900
     28 C17         44.5940    11.4090    28.5950 c3         1 IGJ      -0.055800
     29 N5          40.6460    12.4560    31.3460 nb         1 IGJ      -0.657000
     30 H1          46.4550    19.0750    32.8110 h1         1 IGJ       0.098700
     31 H2          45.8960    16.1370    33.6040 h1         1 IGJ       0.056700
     32 H3          46.0840    17.5380    34.6700 h1         1 IGJ       0.056700
     33 H4          44.7880    13.9690    32.5610 ha         1 IGJ       0.161000
     34 H5          42.7990    14.5070    33.8860 ha         1 IGJ       0.133000
     35 H6          40.3190    14.2550    34.2050 ha         1 IGJ       0.119000
     36 H7          39.0050    12.9280    32.5370 h4         1 IGJ       0.016100
     37 H8          41.9820    11.4030    29.3630 ha         1 IGJ       0.130000
     38 H9          45.4400    17.4210    30.5130 h1         1 IGJ       0.094700
     39 H10         42.9830    17.6650    31.8590 h1         1 IGJ       0.054200
     40 H11         43.9500    16.1870    31.9030 h1         1 IGJ       0.054200
     41 H12         44.0200    18.4200    33.8550 hn         1 IGJ       0.425000
     42 H14         51.5270    17.6780    32.3870 h1         1 IGJ       0.053700
     43 H15         51.6380    16.2300    31.3470 h1         1 IGJ       0.053700
     44 H16         51.2220    17.8150    30.6290 h1         1 IGJ       0.053700
     45 H17         50.3770    14.2260    30.7100 h4         1 IGJ       0.033100
     46 H18         46.5530    12.2080    29.9370 hn         1 IGJ       0.515000
     47 H19         45.1290    12.1310    27.9660 hc         1 IGJ       0.046367
     48 H20         45.3010    10.6230    28.8870 hc         1 IGJ       0.046367
     49 H21         43.8270    10.9390    27.9670 hc         1 IGJ       0.046367
@<TRIPOS>BOND
     1     1    20 1   
     2     1    21 2   
     3     1    23 1   
     4     2     3 1   
     5     2    17 1   
     6     2    20 1   
     7     2    30 1   
     8     3    19 1   
     9     3    31 1   
    10     3    32 1   
    11     4     5 ar  
    12     4    25 ar  
    13     5    26 ar  
    14     5    27 1   
    15     6     7 ar  
    16     6    14 ar  
    17     6    27 1   
    18     7     8 ar  
    19     7    33 1   
    20     8     9 ar  
    21     8    12 ar  
    22     9    10 ar  
    23     9    34 1   
    24    10    11 ar  
    25    10    35 1   
    26    11    29 ar  
    27    11    36 1   
    28    12    13 ar  
    29    12    29 ar  
    30    13    14 ar  
    31    13    37 1   
    32    14    28 1   
    33    15    22 ar  
    34    15    23 1   
    35    15    25 ar  
    36    16    17 1   
    37    17    18 1   
    38    17    38 1   
    39    18    19 1   
    40    18    39 1   
    41    18    40 1   
    42    19    41 1   
    43    20    22 1   
    44    22    26 ar  
    45    23    24 1   
    46    24    42 1   
    47    24    43 1   
    48    24    44 1   
    49    25    45 1   
    50    27    46 1   
    51    28    47 1   
    52    28    48 1   
    53    28    49 1   
@<TRIPOS>SUBSTRUCTURE
     1 IGJ         1 TEMP              0 ****  ****    0 ROOT
