@<TRIPOS>MOLECULE
IGJ
   49    53     1     0     0
SMALL
abcg2


@<TRIPOS>ATOM
      1 C1          48.7390    17.8370    32.1010 c          1 IGJ       0.605000
      2 C2          46.3320    17.7470    32.7770 c5         1 IGJ       0.085700
      3 C3          45.7630    16.9010    33.9360 c5         1 IGJ       0.150800
      4 N6          48.2720    13.8010    30.1510 nb         1 IGJ      -0.251000
      5 C7          47.0470    14.0300    30.6210 ca         1 IGJ       0.390900
      6 C8          44.7990    12.9050    30.6330 ca         1 IGJ       0.315000
      7 C9          44.0890    13.7550    31.4520 ca         1 IGJ      -0.132000
      8 C10         42.7160    13.5410    31.6940 ca         1 IGJ      -0.055000
      9 C11         41.9550    14.3910    32.5260 ca         1 IGJ      -0.064000
     10 C12         40.6270    14.1240    32.7130 ca         1 IGJ      -0.169000
     11 C13         40.0620    13.0050    32.0680 ca         1 IGJ       0.342900
     12 C14         42.0500    12.4460    31.0990 ca         1 IGJ       0.246000
     13 C15         42.8020    11.5870    30.2670 ca         1 IGJ      -0.062000
     14 C16         44.1320    11.7880    30.0250 ca         1 IGJ      -0.108300
     15 C19         48.9100    15.8700    31.0380 ca         1 IGJ      -0.157400
     16 F           45.2630    19.1500    31.1400 f          1 IGJ      -0.253000
     17 C5          45.1340    17.9740    31.8600 c5         1 IGJ       0.174300
     18 C4          43.9880    18.0100    32.8510 c5         1 IGJ       0.127800
     19 N2          44.3210    16.8740    33.6910 n7         1 IGJ      -0.875400
     20 N1          47.4990    17.1940    32.1340 n          1 IGJ      -0.368300
     21 O           48.9920    18.9200    32.5850 o          1 IGJ      -0.542000
     22 C6          47.5960    15.9980    31.4890 ca         1 IGJ       0.222900
     23 N           49.5900    17.0050    31.4230 n          1 IGJ      -0.276000
     24 C           50.9820    17.2760    31.1630 c3         1 IGJ       0.107300
     25 C18         49.2150    14.7200    30.3550 ca         1 IGJ       0.163900
     26 N3          46.6520    15.1080    31.3030 nb         1 IGJ      -0.227000
     27 N4          46.1480    13.0380    30.3410 nu         1 IGJ      -0.926900
     28 C17         44.8790    10.8480    29.1250 c3         1 IGJ      -0.055800
     29 N5          40.7360    12.1950    31.2930 nb         1 IGJ      -0.657000
     30 H1          46.6380    18.7210    33.1610 h1         1 IGJ       0.098700
     31 H2          46.1730    15.8900    33.9390 h1         1 IGJ       0.056700
     32 H3          46.0290    17.3630    34.8910 h1         1 IGJ       0.056700
     33 H4          44.5650    14.6010    31.9200 ha         1 IGJ       0.161000
     34 H5          42.4380    15.2370    33.0010 ha         1 IGJ       0.133000
     35 H6          40.0090    14.7500    33.3420 ha         1 IGJ       0.119000
     36 H7          39.0090    12.7830    32.2080 h4         1 IGJ       0.016100
     37 H8          42.2930    10.7470    29.8090 ha         1 IGJ       0.130000
     38 H9          45.0010    17.1600    31.1460 h1         1 IGJ       0.094700
     39 H10         43.9860    18.9760    33.3750 h1         1 IGJ       0.054200
     40 H11         43.0150    17.8780    32.3760 h1         1 IGJ       0.054200
     41 H12         43.7880    16.8640    34.5490 hn         1 IGJ       0.425000
     42 H14         51.2450    18.2330    31.6030 h1         1 IGJ       0.053700
     43 H15         51.6100    16.5030    31.6050 h1         1 IGJ       0.053700
     44 H16         51.1710    17.3180    30.0910 h1         1 IGJ       0.053700
     45 H17         50.2050    14.5140    29.9650 h4         1 IGJ       0.033100
     46 H18         46.5670    12.2950    29.8050 hn         1 IGJ       0.515000
     47 H19         45.3120    11.3640    28.2650 hc         1 IGJ       0.046367
     48 H20         45.6950    10.3390    29.6460 hc         1 IGJ       0.046367
     49 H21         44.2150    10.0780    28.7400 hc         1 IGJ       0.046367
@<TRIPOS>BOND
     1     1    20 1   
     2     1    21 2   
     3     1    23 1   
     4     2     3 1   
     5     2    17 1   
     6     2    20 1   
     7     2    30 1   
     8     3    19 1   
     9     3    31 1   
    10     3    32 1   
    11     4     5 ar  
    12     4    25 ar  
    13     5    26 ar  
    14     5    27 1   
    15     6     7 ar  
    16     6    14 ar  
    17     6    27 1   
    18     7     8 ar  
    19     7    33 1   
    20     8     9 ar  
    21     8    12 ar  
    22     9    10 ar  
    23     9    34 1   
    24    10    11 ar  
    25    10    35 1   
    26    11    29 ar  
    27    11    36 1   
    28    12    13 ar  
    29    12    29 ar  
    30    13    14 ar  
    31    13    37 1   
    32    14    28 1   
    33    15    22 ar  
    34    15    23 1   
    35    15    25 ar  
    36    16    17 1   
    37    17    18 1   
    38    17    38 1   
    39    18    19 1   
    40    18    39 1   
    41    18    40 1   
    42    19    41 1   
    43    20    22 1   
    44    22    26 ar  
    45    23    24 1   
    46    24    42 1   
    47    24    43 1   
    48    24    44 1   
    49    25    45 1   
    50    27    46 1   
    51    28    47 1   
    52    28    48 1   
    53    28    49 1   
@<TRIPOS>SUBSTRUCTURE
     1 IGJ         1 TEMP              0 ****  ****    0 ROOT
