@<TRIPOS>MOLECULE
IGL
   26    27     1     0     0
SMALL
No Charge or Current Charge


@<TRIPOS>ATOM
      1 N            1.2350     3.4670     0.2060 n8         1 IGL      -0.898800
      2 CA           1.2100     4.6500     1.1530 c3         1 IGL       0.018500
      3 C            1.2500     4.2910     2.7030 c          1 IGL       0.895600
      4 O            2.2520     3.7480     3.1600 o          1 IGL      -0.838800
      5 OXT          0.2380     4.4650     3.3740 o          1 IGL      -0.838800
      6 CB           2.3200     5.6810     0.7570 c5         1 IGL      -0.034700
      7 CG1          2.1510     6.2620    -0.7120 c5         1 IGL      -0.036100
      8 CG2          2.3510     6.9770     1.6750 c5         1 IGL      -0.036100
      9 CD1          1.3790     7.5250    -0.4380 ca         1 IGL      -0.068800
     10 CE1          0.6260     8.2730    -1.3560 ca         1 IGL      -0.125000
     11 CH1         -0.0260     9.4400    -0.9100 ca         1 IGL      -0.149000
     12 CH2          0.0850     9.8420     0.4370 ca         1 IGL      -0.149000
     13 CE2          0.8490     9.0790     1.3430 ca         1 IGL      -0.125000
     14 CD2          1.4880     7.9180     0.8790 ca         1 IGL      -0.068800
     15 H            2.0670     2.9020     0.4070 hn         1 IGL       0.328800
     16 H2           0.4510     2.8430     0.4260 hn         1 IGL       0.328800
     17 HA           0.2460     5.1540     0.9930 h1         1 IGL       0.047700
     18 HB           3.2720     5.1430     0.8450 hc         1 IGL       0.061700
     19 HG12         1.6280     5.5840    -1.3950 hc         1 IGL       0.055950
     20 HG13         3.1240     6.4880    -1.1640 hc         1 IGL       0.055950
     21 HG22         3.3700     7.3700     1.7690 hc         1 IGL       0.055950
     22 HG23         1.9760     6.8140     2.6910 hc         1 IGL       0.055950
     23 HE1          0.5470     7.9570    -2.3950 ha         1 IGL       0.122000
     24 HH1         -0.6160    10.0320    -1.6070 ha         1 IGL       0.110000
     25 HH2         -0.4180    10.7440     0.7790 ha         1 IGL       0.110000
     26 HE2          0.9430     9.3840     2.3830 ha         1 IGL       0.122000
@<TRIPOS>BOND
     1     1     2 1   
     2     1    15 1   
     3     1    16 1   
     4     2     3 1   
     5     2     6 1   
     6     2    17 1   
     7     3     4 1   
     8     3     5 1   
     9     6     7 1   
    10     6     8 1   
    11     6    18 1   
    12     7     9 1   
    13     7    19 1   
    14     7    20 1   
    15     8    14 1   
    16     8    21 1   
    17     8    22 1   
    18     9    10 ar  
    19     9    14 ar  
    20    10    11 ar  
    21    10    23 1   
    22    11    12 ar  
    23    11    24 1   
    24    12    13 ar  
    25    12    25 1   
    26    13    14 ar  
    27    13    26 1   
@<TRIPOS>SUBSTRUCTURE
     1 IGL         1 TEMP              0 ****  ****    0 ROOT
