@<TRIPOS>MOLECULE
IGL
   26    27     1     0     0
SMALL
bcc


@<TRIPOS>ATOM
      1 N            1.2220     3.5720     0.2200 n8         1 IGL      -0.898800
      2 CA           1.1960     4.6870     1.1630 c3         1 IGL       0.018500
      3 C            1.3660     4.2360     2.6340 c          1 IGL       0.895600
      4 O            2.3560     3.5080     2.8670 o          1 IGL      -0.838800
      5 OXT          0.5230     4.6350     3.4640 o          1 IGL      -0.838800
      6 CB           2.3050     5.6840     0.7930 c5         1 IGL      -0.034700
      7 CG1          2.1240     6.2340    -0.6360 c5         1 IGL      -0.036100
      8 CG2          2.2690     6.9430     1.6860 c5         1 IGL      -0.036100
      9 CD1          1.3590     7.5100    -0.4340 ca         1 IGL      -0.068800
     10 CE1          0.6550     8.2670    -1.3570 ca         1 IGL      -0.125000
     11 CH1          0.0210     9.4330    -0.9360 ca         1 IGL      -0.149000
     12 CH2          0.0930     9.8320     0.3940 ca         1 IGL      -0.149000
     13 CE2          0.8020     9.0710     1.3190 ca         1 IGL      -0.125000
     14 CD2          1.4330     7.9110     0.8980 ca         1 IGL      -0.068800
     15 H            2.0140     2.9830     0.4590 hn         1 IGL       0.328800
     16 H2           0.4060     2.9900     0.3690 hn         1 IGL       0.328800
     17 HA           0.2280     5.1880     1.0530 h1         1 IGL       0.047700
     18 HB           3.2630     5.1660     0.8920 hc         1 IGL       0.061700
     19 HG12         1.6180     5.5200    -1.2860 hc         1 IGL       0.055950
     20 HG13         3.0950     6.4470    -1.0970 hc         1 IGL       0.055950
     21 HG22         3.2770     7.3490     1.8230 hc         1 IGL       0.055950
     22 HG23         1.8720     6.7560     2.6850 hc         1 IGL       0.055950
     23 HE1          0.5920     7.9570    -2.3930 ha         1 IGL       0.122000
     24 HH1         -0.5350    10.0300    -1.6480 ha         1 IGL       0.110000
     25 HH2         -0.4090    10.7370     0.7120 ha         1 IGL       0.110000
     26 HE2          0.8530     9.3840     2.3560 ha         1 IGL       0.122000
@<TRIPOS>BOND
     1     1     2 1   
     2     1    15 1   
     3     1    16 1   
     4     2     3 1   
     5     2     6 1   
     6     2    17 1   
     7     3     4 1   
     8     3     5 1   
     9     6     7 1   
    10     6     8 1   
    11     6    18 1   
    12     7     9 1   
    13     7    19 1   
    14     7    20 1   
    15     8    14 1   
    16     8    21 1   
    17     8    22 1   
    18     9    10 ar  
    19     9    14 ar  
    20    10    11 ar  
    21    10    23 1   
    22    11    12 ar  
    23    11    24 1   
    24    12    13 ar  
    25    12    25 1   
    26    13    14 ar  
    27    13    26 1   
@<TRIPOS>SUBSTRUCTURE
     1 IGL         1 TEMP              0 ****  ****    0 ROOT
