@<TRIPOS>MOLECULE
IGM
   63    67     1     0     0
SMALL
No Charge or Current Charge


@<TRIPOS>ATOM
      1 O25        -29.7810    42.3200    -3.9950 o          1 IGM      -0.541500
      2 S21        -28.9490    42.4620    -2.7950 sy         1 IGM       1.238600
      3 O24        -28.9260    43.7040    -2.0160 o          1 IGM      -0.541500
      4 N23        -27.3430    42.1820    -3.2780 n3         1 IGM      -0.814500
      5 C27        -27.0340    40.7910    -3.7370 c6         1 IGM       0.198800
      6 C29        -25.5420    40.6020    -4.1690 c6         1 IGM       0.146600
      7 O31        -24.7560    41.7900    -3.9060 os         1 IGM      -0.442000
      8 C30        -25.2840    42.9650    -4.5690 c6         1 IGM       0.146600
      9 C28        -26.7830    43.2160    -4.1990 c6         1 IGM       0.198800
     10 C18        -29.2680    41.1010    -1.6640 ca         1 IGM      -0.283500
     11 C22        -28.5640    40.9720    -0.4520 ca         1 IGM       0.243000
     12 Cl2        -27.3030    42.0950     0.0620 cl         1 IGM      -0.154000
     13 C19        -28.8370    39.8870     0.3890 ca         1 IGM      -0.130000
     14 C17        -29.8060    38.9300     0.0550 ca         1 IGM       0.197000
     15 Cl1        -29.9740    37.5790     1.1800 cl         1 IGM      -0.165000
     16 C16        -30.2410    40.1390    -2.0090 ca         1 IGM       0.039000
     17 C14        -30.5380    39.0500    -1.1560 ca         1 IGM      -0.167600
     18 C13        -31.6120    38.0850    -1.6210 c          1 IGM       0.616700
     19 O15        -31.8840    37.9840    -2.8090 o          1 IGM      -0.562100
     20 N10        -32.2670    37.3360    -0.6610 ns         1 IGM      -0.361100
     21 C5         -33.2670    36.3710    -0.8300 cc         1 IGM      -0.030400
     22 C2         -33.8370    35.7090     0.2430 cd         1 IGM      -0.116000
     23 C6         -33.4740    35.9370     1.6020 ch         1 IGM       0.349000
     24 N11        -33.1650    36.1510     2.7080 n1         1 IGM      -0.471000
     25 S7         -33.9610    35.8290    -2.3690 ss         1 IGM       0.323000
     26 C3         -35.0100    34.7030    -1.5310 cc         1 IGM      -0.256300
     27 C1         -34.8320    34.7690    -0.1750 cd         1 IGM      -0.027300
     28 C8         -36.0110    33.8050    -2.2120 c6         1 IGM       0.244100
     29 N12        -36.4180    32.6940    -1.3090 n3         1 IGM      -0.715600
     30 C9         -36.8140    33.2070     0.0360 c6         1 IGM       0.163800
     31 C4         -35.6230    33.8800     0.7640 c6         1 IGM      -0.012100
     32 C32        -37.4460    31.8280    -1.9310 c3         1 IGM       0.218100
     33 C33        -37.7320    30.5610    -1.1310 ca         1 IGM      -0.125300
     34 C38        -39.0030    30.3470    -0.5610 ca         1 IGM      -0.058500
     35 C37        -39.2590    29.1770     0.1760 ca         1 IGM      -0.173500
     36 C36        -38.2500    28.2180     0.3470 ca         1 IGM       0.135100
     37 O39        -38.5080    27.0880     1.0630 oh         1 IGM      -0.539100
     38 C35        -36.9810    28.4250    -0.2180 ca         1 IGM      -0.173500
     39 C34        -36.7230    29.5940    -0.9560 ca         1 IGM      -0.058500
     40 H271       -27.2440    40.0630    -2.9400 h1         1 IGM       0.063950
     41 H272       -27.6740    40.5150    -4.5880 h1         1 IGM       0.063950
     42 H281       -27.3640    43.2540    -5.1330 h1         1 IGM       0.063950
     43 H282       -26.8600    44.2150    -3.7450 h1         1 IGM       0.063950
     44 H291       -25.1020    39.7550    -3.6240 h1         1 IGM       0.054950
     45 H292       -25.4940    40.3720    -5.2430 h1         1 IGM       0.054950
     46 H301       -24.6800    43.8360    -4.2790 h1         1 IGM       0.054950
     47 H302       -25.1880    42.8380    -5.6570 h1         1 IGM       0.054950
     48 H16        -30.7870    40.2430    -2.9480 ha         1 IGM       0.170000
     49 H19        -28.2760    39.7790     1.3130 ha         1 IGM       0.154000
     50 H10        -31.9600    37.5310     0.2830 hn         1 IGM       0.343500
     51 H81C       -36.8910    34.3980    -2.5050 h1         1 IGM       0.043200
     52 H82C       -35.5780    33.3980    -3.1380 h1         1 IGM       0.043200
     53 H41C       -34.9650    33.0990     1.1670 hc         1 IGM       0.063700
     54 H42C       -35.9990    34.4470     1.6260 hc         1 IGM       0.063700
     55 H91C       -37.6290    33.9390    -0.0690 h1         1 IGM       0.041700
     56 H92C       -37.1920    32.3970     0.6760 h1         1 IGM       0.041700
     57 H321       -38.3800    32.3920    -2.0670 h1         1 IGM       0.038200
     58 H322       -37.1130    31.5220    -2.9330 h1         1 IGM       0.038200
     59 H38        -39.7920    31.0860    -0.6870 ha         1 IGM       0.118500
     60 H34        -35.7370    29.7540    -1.3890 ha         1 IGM       0.118500
     61 H37        -40.2400    29.0160     0.6140 ha         1 IGM       0.121500
     62 H39        -37.6960    26.5380     1.0780 ho         1 IGM       0.462000
     63 H35        -36.1920    27.6880    -0.0900 ha         1 IGM       0.121500
@<TRIPOS>BOND
     1     1     2 2   
     2     2     3 2   
     3     2     4 1   
     4     2    10 1   
     5     4     5 1   
     6     4     9 1   
     7     5     6 1   
     8     5    40 1   
     9     5    41 1   
    10     6     7 1   
    11     6    44 1   
    12     6    45 1   
    13     7     8 1   
    14     8     9 1   
    15     8    46 1   
    16     8    47 1   
    17     9    42 1   
    18     9    43 1   
    19    10    11 ar  
    20    10    16 ar  
    21    11    12 1   
    22    11    13 ar  
    23    13    14 ar  
    24    13    49 1   
    25    14    15 1   
    26    14    17 ar  
    27    16    17 ar  
    28    16    48 1   
    29    17    18 1   
    30    18    19 2   
    31    18    20 1   
    32    20    21 1   
    33    20    50 1   
    34    21    22 2   
    35    21    25 1   
    36    22    23 1   
    37    22    27 1   
    38    23    24 3   
    39    25    26 1   
    40    26    27 2   
    41    26    28 1   
    42    27    31 1   
    43    28    29 1   
    44    28    51 1   
    45    28    52 1   
    46    29    30 1   
    47    29    32 1   
    48    30    31 1   
    49    30    55 1   
    50    30    56 1   
    51    31    53 1   
    52    31    54 1   
    53    32    33 1   
    54    32    57 1   
    55    32    58 1   
    56    33    34 ar  
    57    33    39 ar  
    58    34    35 ar  
    59    34    59 1   
    60    35    36 ar  
    61    35    61 1   
    62    36    37 1   
    63    36    38 ar  
    64    37    62 1   
    65    38    39 ar  
    66    38    63 1   
    67    39    60 1   
@<TRIPOS>SUBSTRUCTURE
     1 IGM         1 TEMP              0 ****  ****    0 ROOT
