@<TRIPOS>MOLECULE
IGM
   63    67     1     0     0
SMALL
abcg2


@<TRIPOS>ATOM
      1 O25        -30.2770    41.6090    -4.0820 o          1 IGM      -0.541500
      2 S21        -29.3270    42.0590    -3.0910 sy         1 IGM       1.238600
      3 O24        -29.5780    43.3000    -2.4030 o          1 IGM      -0.541500
      4 N23        -27.8460    42.1150    -3.7320 n3         1 IGM      -0.814500
      5 C27        -27.4280    41.0150    -4.6190 c6         1 IGM       0.198800
      6 C29        -25.9420    41.1950    -4.9280 c6         1 IGM       0.146600
      7 O31        -25.2470    41.6050    -3.7600 os         1 IGM      -0.442000
      8 C30        -25.5660    42.9510    -3.3960 c6         1 IGM       0.146600
      9 C28        -27.0170    43.3210    -3.7410 c6         1 IGM       0.198800
     10 C18        -29.2530    40.7420    -1.8850 ca         1 IGM      -0.283500
     11 C22        -28.4230    40.7660    -0.7590 ca         1 IGM       0.243000
     12 CL2        -27.3580    42.0890    -0.4260 cl         1 IGM      -0.154000
     13 C19        -28.4300    39.7080     0.1350 ca         1 IGM      -0.130000
     14 C17        -29.2830    38.6310    -0.0710 ca         1 IGM       0.197000
     15 CL1        -29.2060    37.3240     1.0760 cl         1 IGM      -0.165000
     16 C16        -30.0840    39.6500    -2.0790 ca         1 IGM       0.039000
     17 C14        -30.1370    38.5920    -1.1750 ca         1 IGM      -0.167600
     18 C13        -31.1060    37.5040    -1.5120 c          1 IGM       0.616700
     19 O15        -31.2280    37.0930    -2.6590 o          1 IGM      -0.562100
     20 N10        -31.8970    37.0550    -0.4990 ns         1 IGM      -0.361100
     21 C5         -32.9000    36.1200    -0.6370 cc         1 IGM      -0.030400
     22 C2         -33.7000    35.6580     0.3960 cd         1 IGM      -0.116000
     23 C6         -33.5490    36.0850     1.7320 ch         1 IGM       0.349000
     24 N11        -33.4160    36.4420     2.8230 n1         1 IGM      -0.471000
     25 S7         -33.3420    35.4040    -2.1460 ss         1 IGM       0.323000
     26 C3         -34.6110    34.4950    -1.3860 cc         1 IGM      -0.256300
     27 C1         -34.6910    34.7190    -0.0500 cd         1 IGM      -0.027300
     28 C8         -35.5140    33.5720    -2.1400 c6         1 IGM       0.244100
     29 N12        -36.1800    32.6650    -1.2080 n3         1 IGM      -0.715600
     30 C9         -36.7860    33.3980    -0.0950 c6         1 IGM       0.163800
     31 C4         -35.7150    34.0260     0.7950 c6         1 IGM      -0.012100
     32 C32        -37.1540    31.8360    -1.9200 c3         1 IGM       0.218100
     33 C33        -37.6620    30.6870    -1.0880 ca         1 IGM      -0.125300
     34 C38        -39.0220    30.5250    -0.8330 ca         1 IGM      -0.058500
     35 C37        -39.4950    29.4540    -0.0830 ca         1 IGM      -0.173500
     36 C36        -38.5970    28.5240     0.4310 ca         1 IGM       0.135100
     37 O39        -39.1010    27.4850     1.1620 oh         1 IGM      -0.539100
     38 C35        -37.2300    28.6730     0.1910 ca         1 IGM      -0.173500
     39 C34        -36.7770    29.7450    -0.5640 ca         1 IGM      -0.058500
     40 H271       -27.5860    40.0680    -4.1000 h1         1 IGM       0.063950
     41 H272       -28.0090    41.0090    -5.5440 h1         1 IGM       0.063950
     42 H281       -27.0760    43.7890    -4.7260 h1         1 IGM       0.063950
     43 H282       -27.4040    44.0280    -3.0130 h1         1 IGM       0.063950
     44 H291       -25.5180    40.2440    -5.2450 h1         1 IGM       0.054950
     45 H292       -25.7950    41.9210    -5.7350 h1         1 IGM       0.054950
     46 H301       -25.3920    43.0180    -2.3240 h1         1 IGM       0.054950
     47 H302       -24.8940    43.6480    -3.9090 h1         1 IGM       0.054950
     48 H16        -30.7210    39.6230    -2.9490 ha         1 IGM       0.170000
     49 H19        -27.7700    39.7210     0.9900 ha         1 IGM       0.154000
     50 H10        -31.7750    37.4550     0.4210 hn         1 IGM       0.343500
     51 H81C       -36.2460    34.1650    -2.7180 h1         1 IGM       0.043200
     52 H82C       -34.9480    32.9790    -2.8640 h1         1 IGM       0.043200
     53 H41C       -35.2310    33.2540     1.4010 hc         1 IGM       0.063700
     54 H42C       -36.1790    34.7310     1.4900 hc         1 IGM       0.063700
     55 H91C       -37.4640    34.1840    -0.4690 h1         1 IGM       0.041700
     56 H92C       -37.3860    32.7020     0.4890 h1         1 IGM       0.041700
     57 H321       -38.0070    32.4380    -2.2720 h1         1 IGM       0.038200
     58 H322       -36.6520    31.4490    -2.8110 h1         1 IGM       0.038200
     59 H38        -39.7270    31.2480    -1.2250 ha         1 IGM       0.118500
     60 H34        -35.7140    29.8560    -0.7440 ha         1 IGM       0.118500
     61 H37        -40.5540    29.3350     0.1120 ha         1 IGM       0.121500
     62 H39        -38.3800    26.9160     1.4630 ho         1 IGM       0.462000
     63 H35        -36.5330    27.9460     0.5930 ha         1 IGM       0.121500
@<TRIPOS>BOND
     1     1     2 2   
     2     2     3 2   
     3     2     4 1   
     4     2    10 1   
     5     4     5 1   
     6     4     9 1   
     7     5     6 1   
     8     5    40 1   
     9     5    41 1   
    10     6     7 1   
    11     6    44 1   
    12     6    45 1   
    13     7     8 1   
    14     8     9 1   
    15     8    46 1   
    16     8    47 1   
    17     9    42 1   
    18     9    43 1   
    19    10    11 ar  
    20    10    16 ar  
    21    11    12 1   
    22    11    13 ar  
    23    13    14 ar  
    24    13    49 1   
    25    14    15 1   
    26    14    17 ar  
    27    16    17 ar  
    28    16    48 1   
    29    17    18 1   
    30    18    19 2   
    31    18    20 1   
    32    20    21 1   
    33    20    50 1   
    34    21    22 2   
    35    21    25 1   
    36    22    23 1   
    37    22    27 1   
    38    23    24 3   
    39    25    26 1   
    40    26    27 2   
    41    26    28 1   
    42    27    31 1   
    43    28    29 1   
    44    28    51 1   
    45    28    52 1   
    46    29    30 1   
    47    29    32 1   
    48    30    31 1   
    49    30    55 1   
    50    30    56 1   
    51    31    53 1   
    52    31    54 1   
    53    32    33 1   
    54    32    57 1   
    55    32    58 1   
    56    33    34 ar  
    57    33    39 ar  
    58    34    35 ar  
    59    34    59 1   
    60    35    36 ar  
    61    35    61 1   
    62    36    37 1   
    63    36    38 ar  
    64    37    62 1   
    65    38    39 ar  
    66    38    63 1   
    67    39    60 1   
@<TRIPOS>SUBSTRUCTURE
     1 IGM         1 TEMP              0 ****  ****    0 ROOT
