@<TRIPOS>MOLECULE
IGO
   49    52     1     0     0
SMALL
No Charge or Current Charge


@<TRIPOS>ATOM
      1 C10         92.3280   -14.8490     7.7590 c5         1 IGO       0.241800
      2 C11         93.4640   -11.4260    11.5100 c3         1 IGO      -0.103700
      3 C13         92.7720   -10.0430    11.4370 c3         1 IGO      -0.069700
      4 C17         92.6630    -8.4340    14.6240 cc         1 IGO      -0.124000
      5 C19         90.5050    -8.9250    15.5470 cc         1 IGO      -0.090300
      6 C20         90.8900    -8.1570    16.6660 cd         1 IGO       0.308300
      7 C22         92.9800    -7.6900    15.7840 cc         1 IGO       0.406300
      8 C23         89.1620    -9.6150    15.3820 c3         1 IGO      -0.042800
      9 C24         89.9730    -7.9400    17.8440 c3         1 IGO      -0.134400
     10 C25         94.3360    -7.0460    15.8640 c3         1 IGO      -0.139400
     11 C1          93.7420   -12.9470     8.3220 cc         1 IGO       0.810900
     12 N2          93.0060   -12.7220     9.4340 nc         1 IGO      -0.760000
     13 C3          93.8150   -11.9750    10.1520 cd         1 IGO       0.455800
     14 N4          94.9910   -11.7510     9.4450 na         1 IGO      -0.064700
     15 N5          94.9300   -12.3840     8.2320 nd         1 IGO      -0.616800
     16 N6          93.1250   -13.6650     7.3280 nh         1 IGO      -0.797300
     17 C7          93.9470   -13.9350     6.1220 c5         1 IGO       0.241800
     18 C8          93.1500   -15.1090     5.5030 c5         1 IGO      -0.096900
     19 C9          92.8220   -15.9420     6.7710 c5         1 IGO      -0.096900
     20 C12         96.1570   -10.9520     9.8580 c3         1 IGO       0.077900
     21 C14         92.4420    -9.4800    12.7930 cd         1 IGO       0.522300
     22 N15         91.2690    -9.6990    13.3780 nc         1 IGO      -0.592100
     23 N16         93.3360    -8.7060    13.5200 nd         1 IGO      -0.389300
     24 N18         91.4580    -9.0210    14.5310 na         1 IGO       0.315400
     25 N21         92.1430    -7.5320    16.7970 nd         1 IGO      -0.660000
     26 H32         92.5050   -15.1560     8.8000 h1         1 IGO       0.048450
     27 H33         91.2530   -14.6570     7.6360 h1         1 IGO       0.048450
     28 H35         92.8040   -12.1300    12.0310 hc         1 IGO       0.065700
     29 H34         94.3700   -11.3460    12.1230 hc         1 IGO       0.065700
     30 H39         93.4200    -9.3380    10.9030 hc         1 IGO       0.081200
     31 H40         91.8550   -10.1280    10.8430 hc         1 IGO       0.081200
     32 H42         89.2920   -10.6610    15.0780 hc         1 IGO       0.063700
     33 H41         88.5740    -9.6240    16.3060 hc         1 IGO       0.063700
     34 H43         88.5630    -9.1150    14.6130 hc         1 IGO       0.063700
     35 H45         90.4110    -7.2640    18.5880 hc         1 IGO       0.054700
     36 H44         89.0220    -7.4990    17.5230 hc         1 IGO       0.054700
     37 H46         89.7560    -8.8880    18.3490 hc         1 IGO       0.054700
     38 H48         94.4710    -6.5010    16.8060 hc         1 IGO       0.063033
     39 H49         95.1270    -7.8010    15.7960 hc         1 IGO       0.063033
     40 H47         94.4740    -6.3350    15.0420 hc         1 IGO       0.063033
     41 H27         94.0020   -13.0710     5.4450 h1         1 IGO       0.048450
     42 H26         94.9690   -14.2490     6.3770 h1         1 IGO       0.048450
     43 H29         92.2390   -14.7570     5.0040 hc         1 IGO       0.050950
     44 H28         93.7370   -15.6690     4.7660 hc         1 IGO       0.050950
     45 H31         92.0650   -16.7130     6.5910 hc         1 IGO       0.050950
     46 H30         93.7170   -16.4440     7.1560 hc         1 IGO       0.050950
     47 H36         95.8380    -9.9300    10.0980 h1         1 IGO       0.054367
     48 H37         96.6180   -11.4050    10.7440 h1         1 IGO       0.054367
     49 H38         96.8960   -10.9150     9.0470 h1         1 IGO       0.054367
@<TRIPOS>BOND
     1     1    16 1   
     2     1    19 1   
     3     1    26 1   
     4     1    27 1   
     5     2     3 1   
     6     2    13 1   
     7     2    28 1   
     8     2    29 1   
     9     3    21 1   
    10     3    30 1   
    11     3    31 1   
    12     4     7 1   
    13     4    23 2   
    14     4    24 1   
    15     5     6 2   
    16     5     8 1   
    17     5    24 1   
    18     6     9 1   
    19     6    25 1   
    20     7    10 1   
    21     7    25 2   
    22     8    32 1   
    23     8    33 1   
    24     8    34 1   
    25     9    35 1   
    26     9    36 1   
    27     9    37 1   
    28    10    38 1   
    29    10    39 1   
    30    10    40 1   
    31    11    12 1   
    32    11    15 2   
    33    11    16 1   
    34    12    13 2   
    35    13    14 1   
    36    14    15 1   
    37    14    20 1   
    38    16    17 1   
    39    17    18 1   
    40    17    41 1   
    41    17    42 1   
    42    18    19 1   
    43    18    43 1   
    44    18    44 1   
    45    19    45 1   
    46    19    46 1   
    47    20    47 1   
    48    20    48 1   
    49    20    49 1   
    50    21    22 2   
    51    21    23 1   
    52    22    24 1   
@<TRIPOS>SUBSTRUCTURE
     1 IGO         1 TEMP              0 ****  ****    0 ROOT
