@<TRIPOS>MOLECULE
IGO
   49    52     1     0     0
SMALL
abcg2


@<TRIPOS>ATOM
      1 C10         92.0580   -13.7160     7.2180 c5         1 IGO       0.241800
      2 C11         93.9100   -11.1030    11.5180 c3         1 IGO      -0.103700
      3 C13         92.4260   -10.7850    11.6760 c3         1 IGO      -0.069700
      4 C17         92.2870    -8.4400    14.3100 cc         1 IGO      -0.124000
      5 C19         90.6370    -9.2490    15.8560 cc         1 IGO      -0.090300
      6 C20         90.8960    -8.1350    16.6140 cd         1 IGO       0.308300
      7 C22         92.5030    -7.3220    15.1450 cc         1 IGO       0.406300
      8 C23         89.6670   -10.3320    16.1580 c3         1 IGO      -0.042800
      9 C24         90.1720    -7.8860    17.9040 c3         1 IGO      -0.134400
     10 C25         93.5080    -6.2910    14.7610 c3         1 IGO      -0.139400
     11 C1          94.0320   -12.9540     8.4830 cc         1 IGO       0.810900
     12 N2          93.2900   -12.3000     9.4100 nc         1 IGO      -0.760000
     13 C3          94.1900   -11.8910    10.2840 cd         1 IGO       0.455800
     14 N4          95.4040   -12.2780     9.8970 na         1 IGO      -0.064700
     15 N5          95.3270   -12.9710     8.7360 nd         1 IGO      -0.616800
     16 N6          93.4870   -13.5270     7.3880 nh         1 IGO      -0.797300
     17 C7          94.2840   -14.2630     6.4280 c5         1 IGO       0.241800
     18 C8          93.2580   -14.6700     5.3760 c5         1 IGO      -0.096900
     19 C9          91.9790   -14.8420     6.1910 c5         1 IGO      -0.096900
     20 C12         96.6810   -12.0720    10.5270 c3         1 IGO       0.077900
     21 C14         92.1730    -9.9730    12.8960 cd         1 IGO       0.522300
     22 N15         91.2820   -10.3360    13.8100 nc         1 IGO      -0.592100
     23 N16         92.8130    -8.8250    13.1560 nd         1 IGO      -0.389300
     24 N18         91.3600    -9.3540    14.7060 na         1 IGO       0.315400
     25 N21         91.8140    -7.2050    16.2470 nd         1 IGO      -0.660000
     26 H32         91.5710   -13.9800     8.1590 h1         1 IGO       0.048450
     27 H33         91.5750   -12.8050     6.8470 h1         1 IGO       0.048450
     28 H35         94.2630   -11.6550    12.3940 hc         1 IGO       0.065700
     29 H34         94.4860   -10.1740    11.4950 hc         1 IGO       0.065700
     30 H39         92.0720   -10.2350    10.8010 hc         1 IGO       0.081200
     31 H40         91.8410   -11.7030    11.7300 hc         1 IGO       0.081200
     32 H42         90.1670   -11.3010    16.2030 hc         1 IGO       0.063700
     33 H41         89.1750   -10.1610    17.1110 hc         1 IGO       0.063700
     34 H43         88.9000   -10.4000    15.3840 hc         1 IGO       0.063700
     35 H45         90.4820    -6.9290    18.3190 hc         1 IGO       0.054700
     36 H44         89.0900    -7.8590    17.7680 hc         1 IGO       0.054700
     37 H46         90.3870    -8.6570    18.6450 hc         1 IGO       0.054700
     38 H48         93.5520    -5.5050    15.5110 hc         1 IGO       0.063033
     39 H49         94.5010    -6.7330    14.6580 hc         1 IGO       0.063033
     40 H47         93.2580    -5.8430    13.7980 hc         1 IGO       0.063033
     41 H27         95.0850   -13.6440     6.0170 h1         1 IGO       0.048450
     42 H26         94.7560   -15.1420     6.8850 h1         1 IGO       0.048450
     43 H29         93.1350   -13.8720     4.6410 hc         1 IGO       0.050950
     44 H28         93.5520   -15.5720     4.8410 hc         1 IGO       0.050950
     45 H31         91.0740   -14.7900     5.5870 hc         1 IGO       0.050950
     46 H30         91.9860   -15.8100     6.6970 hc         1 IGO       0.050950
     47 H36         97.3460   -11.5210     9.8640 h1         1 IGO       0.054367
     48 H37         96.5510   -11.5010    11.4420 h1         1 IGO       0.054367
     49 H38         97.1390   -13.0280    10.7760 h1         1 IGO       0.054367
@<TRIPOS>BOND
     1     1    16 1   
     2     1    19 1   
     3     1    26 1   
     4     1    27 1   
     5     2     3 1   
     6     2    13 1   
     7     2    28 1   
     8     2    29 1   
     9     3    21 1   
    10     3    30 1   
    11     3    31 1   
    12     4     7 1   
    13     4    23 2   
    14     4    24 1   
    15     5     6 2   
    16     5     8 1   
    17     5    24 1   
    18     6     9 1   
    19     6    25 1   
    20     7    10 1   
    21     7    25 2   
    22     8    32 1   
    23     8    33 1   
    24     8    34 1   
    25     9    35 1   
    26     9    36 1   
    27     9    37 1   
    28    10    38 1   
    29    10    39 1   
    30    10    40 1   
    31    11    12 1   
    32    11    15 2   
    33    11    16 1   
    34    12    13 2   
    35    13    14 1   
    36    14    15 1   
    37    14    20 1   
    38    16    17 1   
    39    17    18 1   
    40    17    41 1   
    41    17    42 1   
    42    18    19 1   
    43    18    43 1   
    44    18    44 1   
    45    19    45 1   
    46    19    46 1   
    47    20    47 1   
    48    20    48 1   
    49    20    49 1   
    50    21    22 2   
    51    21    23 1   
    52    22    24 1   
@<TRIPOS>SUBSTRUCTURE
     1 IGO         1 TEMP              0 ****  ****    0 ROOT
