@<TRIPOS>MOLECULE
IGQ
   36    39     1     0     0
SMALL
bcc


@<TRIPOS>ATOM
      1 C10         11.3410   -13.4050    -9.6820 c6         1 IGQ      -0.075400
      2 C13          6.3650   -16.6200   -13.0180 cy         1 IGQ      -0.116400
      3 C15          5.3170   -16.9460   -14.8230 ca         1 IGQ      -0.096300
      4 C17          5.1990   -15.8780   -16.9160 ca         1 IGQ      -0.122000
      5 C20          6.2340   -16.0000   -14.4000 ca         1 IGQ      -0.121300
      6 O01          8.1570   -18.2210   -13.0270 o          1 IGQ      -0.523100
      7 C02          7.7600   -17.1200   -12.7200 c          1 IGQ       0.687100
      8 N03          8.5450   -16.1790   -12.1150 ns         1 IGQ      -0.552400
      9 C04          9.8760   -16.2900   -11.7720 cc         1 IGQ       0.471200
     10 N05         10.6110   -17.3480   -11.9960 nd         1 IGQ      -0.364300
     11 O06         11.8540   -17.0360   -11.5000 os         1 IGQ      -0.111100
     12 C07         11.8380   -15.8060   -10.9900 cd         1 IGQ       0.313000
     13 C08         13.0270   -15.1800   -10.3680 c6         1 IGQ      -0.118700
     14 C09         12.7480   -13.6800   -10.2140 c6         1 IGQ      -0.074400
     15 C11         10.2530   -13.8930   -10.6440 c6         1 IGQ       0.009900
     16 C12         10.6100   -15.2600   -11.1210 cc         1 IGQ      -0.392900
     17 C14          5.3330   -17.6860   -13.5060 cy         1 IGQ      -0.009100
     18 C16          4.7660   -16.9160   -16.0870 ca         1 IGQ      -0.096000
     19 C18          6.1290   -14.9310   -16.4850 ca         1 IGQ      -0.131000
     20 C19          6.6750   -14.9680   -15.2000 ca         1 IGQ      -0.090000
     21 H1          11.2150   -12.3360    -9.5030 hc         1 IGQ       0.046200
     22 H2          11.2160   -13.9020    -8.7160 hc         1 IGQ       0.046200
     23 H3           5.9940   -15.9870   -12.2070 hc         1 IGQ       0.075700
     24 H4           4.8060   -15.8030   -17.9220 ha         1 IGQ       0.131000
     25 H5           8.1130   -15.2960   -11.8830 hn         1 IGQ       0.325500
     26 H6          13.2160   -15.6360    -9.3910 hc         1 IGQ       0.070700
     27 H7          13.9210   -15.3490   -10.9710 hc         1 IGQ       0.070700
     28 H8          13.4920   -13.2430    -9.5470 hc         1 IGQ       0.048700
     29 H9          12.8710   -13.1900   -11.1850 hc         1 IGQ       0.048700
     30 H10         10.1650   -13.2060   -11.4920 hc         1 IGQ       0.045200
     31 H11          9.2810   -13.8930   -10.1430 hc         1 IGQ       0.045200
     32 H12          4.3960   -17.6760   -12.9480 hc         1 IGQ       0.075200
     33 H13          5.7090   -18.7080   -13.5410 hc         1 IGQ       0.075200
     34 H14          4.0440   -17.6430   -16.4370 ha         1 IGQ       0.141000
     35 H15          6.4310   -14.1480   -17.1690 ha         1 IGQ       0.131000
     36 H16          7.3950   -14.2270   -14.8750 ha         1 IGQ       0.137000
@<TRIPOS>BOND
     1     1    14 1   
     2     1    15 1   
     3     1    21 1   
     4     1    22 1   
     5     2     5 1   
     6     2     7 1   
     7     2    17 1   
     8     2    23 1   
     9     3     5 ar  
    10     3    17 1   
    11     3    18 ar  
    12     4    18 ar  
    13     4    19 ar  
    14     4    24 1   
    15     5    20 ar  
    16     6     7 2   
    17     7     8 1   
    18     8     9 1   
    19     8    25 1   
    20     9    10 2   
    21     9    16 1   
    22    10    11 1   
    23    11    12 1   
    24    12    13 1   
    25    12    16 2   
    26    13    14 1   
    27    13    26 1   
    28    13    27 1   
    29    14    28 1   
    30    14    29 1   
    31    15    16 1   
    32    15    30 1   
    33    15    31 1   
    34    17    32 1   
    35    17    33 1   
    36    18    34 1   
    37    19    20 ar  
    38    19    35 1   
    39    20    36 1   
@<TRIPOS>SUBSTRUCTURE
     1 IGQ         1 TEMP              0 ****  ****    0 ROOT
