@<TRIPOS>MOLECULE
IGQ
   36    39     1     0     0
SMALL
No Charge or Current Charge


@<TRIPOS>ATOM
      1 C10         11.0230   -14.2520    -8.9000 c6         1 IGQ      -0.075400
      2 C13          7.0290   -15.1610   -14.0360 cy         1 IGQ      -0.116400
      3 C15          5.5030   -16.5280   -14.5620 ca         1 IGQ      -0.096300
      4 C17          4.2200   -17.0060   -16.5050 ca         1 IGQ      -0.104000
      5 C20          6.1620   -15.5430   -15.2170 ca         1 IGQ      -0.121300
      6 O01          8.9300   -16.7030   -14.7230 o          1 IGQ      -0.523100
      7 C02          8.4180   -15.8930   -13.9630 c          1 IGQ       0.620100
      8 N03          9.0870   -15.4620   -12.8340 ns         1 IGQ      -0.485400
      9 C04         10.3300   -15.8220   -12.3580 cc         1 IGQ       0.405900
     10 N05         11.1540   -16.6860   -12.9320 nd         1 IGQ      -0.364300
     11 O06         12.3070   -16.7080   -12.0570 os         1 IGQ      -0.066700
     12 C07         12.0620   -15.8420   -11.0280 cd         1 IGQ       0.203300
     13 C08         13.0100   -15.5720    -9.8880 c6         1 IGQ      -0.118700
     14 C09         12.5650   -14.2900    -9.1250 c6         1 IGQ      -0.074400
     15 C11         10.2280   -14.2650   -10.2390 c6         1 IGQ       0.009900
     16 C12         10.8470   -15.2770   -11.1720 cc         1 IGQ      -0.262300
     17 C14          6.2410   -16.3500   -13.2490 cy         1 IGQ      -0.009100
     18 C16          4.5100   -17.3110   -15.1500 ca         1 IGQ      -0.078000
     19 C18          4.9160   -15.9650   -17.1940 ca         1 IGQ      -0.113000
     20 C19          5.9200   -15.2000   -16.5460 ca         1 IGQ      -0.072000
     21 H1          10.7490   -13.3620    -8.3170 hc         1 IGQ       0.046200
     22 H2          10.7270   -15.1190    -8.2940 hc         1 IGQ       0.046200
     23 H3           6.9750   -14.1440   -13.6330 hc         1 IGQ       0.075700
     24 H4           3.4550   -17.5760   -17.0290 ha         1 IGQ       0.113000
     25 H5           8.5780   -14.7860   -12.2840 hn         1 IGQ       0.325500
     26 H6          13.0110   -16.4300    -9.2030 hc         1 IGQ       0.070700
     27 H7          14.0390   -15.4590   -10.2540 hc         1 IGQ       0.070700
     28 H8          13.0890   -14.2300    -8.1610 hc         1 IGQ       0.048700
     29 H9          12.8670   -13.4010    -9.6960 hc         1 IGQ       0.048700
     30 H10         10.2580   -13.2650   -10.6930 hc         1 IGQ       0.045200
     31 H11          9.1710   -14.4910   -10.0410 hc         1 IGQ       0.045200
     32 H12          5.6060   -16.0100   -12.4230 hc         1 IGQ       0.075200
     33 H13          6.7890   -17.2420   -12.9180 hc         1 IGQ       0.075200
     34 H14          3.9940   -18.0990   -14.6060 ha         1 IGQ       0.123000
     35 H15          4.6720   -15.7540   -18.2330 ha         1 IGQ       0.113000
     36 H16          6.4620   -14.4030   -17.0490 ha         1 IGQ       0.119000
@<TRIPOS>BOND
     1     1    14 1   
     2     1    15 1   
     3     1    21 1   
     4     1    22 1   
     5     2     5 1   
     6     2     7 1   
     7     2    17 1   
     8     2    23 1   
     9     3     5 ar  
    10     3    17 1   
    11     3    18 ar  
    12     4    18 ar  
    13     4    19 ar  
    14     4    24 1   
    15     5    20 ar  
    16     6     7 2   
    17     7     8 1   
    18     8     9 1   
    19     8    25 1   
    20     9    10 2   
    21     9    16 1   
    22    10    11 1   
    23    11    12 1   
    24    12    13 1   
    25    12    16 2   
    26    13    14 1   
    27    13    26 1   
    28    13    27 1   
    29    14    28 1   
    30    14    29 1   
    31    15    16 1   
    32    15    30 1   
    33    15    31 1   
    34    17    32 1   
    35    17    33 1   
    36    18    34 1   
    37    19    20 ar  
    38    19    35 1   
    39    20    36 1   
@<TRIPOS>SUBSTRUCTURE
     1 IGQ         1 TEMP              0 ****  ****    0 ROOT
