@<TRIPOS>MOLECULE
IGT
   20    20     1     0     0
SMALL
abcg2


@<TRIPOS>ATOM
      1 C10         18.2770   -25.8800    11.8000 c          1 IGT       0.570200
      2 C01         19.4640   -23.7300    11.6970 c3         1 IGT       0.083300
      3 C03         17.1490   -23.8410    11.0450 c          1 IGT       0.610000
      4 C06         15.9700   -25.9600    11.0710 cc         1 IGT       0.057400
      5 C07         14.6650   -26.6160    10.7820 c3         1 IGT      -0.063900
      6 C08         17.0450   -26.6140    11.5610 cd         1 IGT      -0.088200
      7 N02         18.2600   -24.5250    11.4950 n          1 IGT      -0.362400
      8 N05         16.0420   -24.6060    10.8530 ns         1 IGT      -0.512600
      9 N09         17.0360   -27.9910    11.8200 nv         1 IGT      -0.883000
     10 O04         17.1630   -22.6420    10.8330 o          1 IGT      -0.559000
     11 O11         19.2840   -26.4180    12.2340 o          1 IGT      -0.543000
     12 H1          20.2780   -24.3890    11.9720 h1         1 IGT       0.058700
     13 H2          19.7270   -23.2050    10.7820 h1         1 IGT       0.058700
     14 H3          19.3140   -23.0010    12.4910 h1         1 IGT       0.058700
     15 H4          14.8110   -27.6710    10.5630 hc         1 IGT       0.061367
     16 H5          13.9930   -26.5440    11.6390 hc         1 IGT       0.061367
     17 H6          14.1670   -26.1490     9.9320 hc         1 IGT       0.061367
     18 H8          17.9440   -28.3070    12.1320 hn         1 IGT       0.434000
     19 H9          16.3520   -28.2570    12.5140 hn         1 IGT       0.434000
     20 H7          15.2210   -24.1200    10.5210 hn         1 IGT       0.461000
@<TRIPOS>BOND
     1     1     6 1   
     2     1     7 1   
     3     1    11 2   
     4     2     7 1   
     5     2    12 1   
     6     2    13 1   
     7     2    14 1   
     8     3     7 1   
     9     3     8 1   
    10     3    10 2   
    11     4     5 1   
    12     4     6 2   
    13     4     8 1   
    14     5    15 1   
    15     5    16 1   
    16     5    17 1   
    17     6     9 1   
    18     8    20 1   
    19     9    18 1   
    20     9    19 1   
@<TRIPOS>SUBSTRUCTURE
     1 IGT         1 TEMP              0 ****  ****    0 ROOT
