@<TRIPOS>MOLECULE
IGT
   20    20     1     0     0
SMALL
No Charge or Current Charge


@<TRIPOS>ATOM
      1 C10         18.3160   -25.8300    11.9150 c          1 IGT       0.570200
      2 C01         19.5280   -23.6780    11.6730 c3         1 IGT       0.083300
      3 C03         17.1770   -23.8750    10.9080 c          1 IGT       0.610000
      4 C06         15.9500   -25.9810    11.1090 cc         1 IGT       0.057400
      5 C07         14.6070   -26.6040    10.8190 c3         1 IGT      -0.063900
      6 C08         17.0320   -26.6020    11.6910 cd         1 IGT      -0.088200
      7 N02         18.2960   -24.4910    11.4830 n          1 IGT      -0.362400
      8 N05         16.0710   -24.6550    10.7510 ns         1 IGT      -0.512600
      9 N09         17.0390   -27.9340    12.1090 nv         1 IGT      -0.883000
     10 O04         17.1540   -22.7080    10.5580 o          1 IGT      -0.559000
     11 O11         19.3080   -26.3310    12.4380 o          1 IGT      -0.543000
     12 H1          20.4230   -24.2930    11.5170 h1         1 IGT       0.058700
     13 H2          19.5690   -22.8470    10.9580 h1         1 IGT       0.058700
     14 H3          19.5460   -23.2720    12.6920 h1         1 IGT       0.058700
     15 H4          14.7220   -27.4980    10.1950 hc         1 IGT       0.061367
     16 H5          14.1120   -26.9070    11.7500 hc         1 IGT       0.061367
     17 H6          13.9320   -25.9190    10.2920 hc         1 IGT       0.061367
     18 H8          17.8720   -28.3380    12.5400 hn         1 IGT       0.434000
     19 H9          16.2190   -28.5330    12.0080 hn         1 IGT       0.434000
     20 H7          15.2860   -24.1700    10.3290 hn         1 IGT       0.461000
@<TRIPOS>BOND
     1     1     6 1   
     2     1     7 1   
     3     1    11 2   
     4     2     7 1   
     5     2    12 1   
     6     2    13 1   
     7     2    14 1   
     8     3     7 1   
     9     3     8 1   
    10     3    10 2   
    11     4     5 1   
    12     4     6 2   
    13     4     8 1   
    14     5    15 1   
    15     5    16 1   
    16     5    17 1   
    17     6     9 1   
    18     8    20 1   
    19     9    18 1   
    20     9    19 1   
@<TRIPOS>SUBSTRUCTURE
     1 IGT         1 TEMP              0 ****  ****    0 ROOT
