@<TRIPOS>MOLECULE
IGW
   51    54     1     0     0
SMALL
No Charge or Current Charge


@<TRIPOS>ATOM
      1 C01         29.0490   -44.2380   -14.9460 cc         1 IGW      -0.167600
      2 C02         27.7050   -43.8520   -15.0750 cd         1 IGW      -0.249600
      3 C06         29.3150   -46.4870   -11.8710 cc         1 IGW       0.101600
      4 C07         28.2230   -47.0620   -11.1150 cc         1 IGW      -0.195000
      5 C10         30.7630   -47.5650   -10.3100 cd         1 IGW      -0.035000
      6 C13         31.3940   -48.7200    -8.6730 cc         1 IGW       0.589900
      7 C15         32.3390   -49.3590    -7.7350 ca         1 IGW      -0.107900
      8 C16         33.7390   -49.1980    -7.8810 ca         1 IGW      -0.073000
      9 C17         34.6310   -49.8110    -6.9820 ca         1 IGW      -0.124000
     10 C18         34.1420   -50.5930    -5.9250 ca         1 IGW      -0.096000
     11 C19         32.7590   -50.7620    -5.7660 ca         1 IGW      -0.124000
     12 C20         31.8640   -50.1520    -6.6620 ca         1 IGW      -0.073000
     13 C22         29.7510   -45.1340   -13.9600 c          1 IGW       0.637700
     14 C24         31.1150   -43.5080   -16.3030 c3         1 IGW       0.067900
     15 C25         26.4870   -44.3340   -14.3420 c          1 IGW       0.656700
     16 C28         25.4060   -42.0270   -14.4600 c3         1 IGW       0.091300
     17 C03         27.6690   -42.9500   -16.1640 cd         1 IGW       0.262900
     18 N04         28.8380   -42.7240   -16.7090 nc         1 IGW      -0.505800
     19 N05         29.6800   -43.5110   -15.9670 na         1 IGW       0.180800
     20 C08         28.3810   -47.8710    -9.9920 cd         1 IGW      -0.052000
     21 C09         30.6160   -46.7350   -11.4590 cd         1 IGW      -0.143000
     22 N11         29.7060   -48.1000    -9.6300 na         1 IGW       0.281400
     23 N12         30.0720   -48.8510    -8.5640 nd         1 IGW      -0.601100
     24 N14         31.8670   -47.9480    -9.7160 nc         1 IGW      -0.404300
     25 N21         28.9800   -45.6950   -12.9670 ns         1 IGW      -0.396100
     26 O23         30.9530   -45.3390   -14.0310 o          1 IGW      -0.576100
     27 N26         25.3330   -43.5050   -14.3320 n          1 IGW      -0.382800
     28 O27         26.4530   -45.4220   -13.7900 o          1 IGW      -0.648100
     29 C29         24.0230   -44.0520   -13.8740 c3         1 IGW       0.059000
     30 C30         23.1320   -44.5600   -15.0260 c3         1 IGW       0.162600
     31 F31         22.8180   -43.5440   -15.8690 f          1 IGW      -0.272000
     32 H33         27.2130   -46.8470   -11.4520 ha         1 IGW       0.146000
     33 H36         34.1490   -48.5980    -8.6910 ha         1 IGW       0.131000
     34 H37         35.7030   -49.6780    -7.1070 ha         1 IGW       0.113500
     35 H38         34.8330   -51.0660    -5.2300 ha         1 IGW       0.111000
     36 H39         32.3770   -51.3680    -4.9470 ha         1 IGW       0.113500
     37 H40         30.7960   -50.2990    -6.5160 ha         1 IGW       0.131000
     38 H43         31.3010   -42.8470   -17.1580 h1         1 IGW       0.071700
     39 H42         31.6920   -43.1510   -15.4430 h1         1 IGW       0.071700
     40 H44         31.4320   -44.5250   -16.5620 h1         1 IGW       0.071700
     41 H47         24.7250   -41.5510   -13.7430 h1         1 IGW       0.050367
     42 H45         26.4190   -41.6640   -14.2440 h1         1 IGW       0.050367
     43 H46         25.1080   -41.7230   -15.4710 h1         1 IGW       0.050367
     44 H32         26.8060   -42.4790   -16.6160 h4         1 IGW       0.048100
     45 H34         27.5950   -48.3220    -9.4000 h4         1 IGW       0.162000
     46 H35         31.4920   -46.3300   -11.9490 ha         1 IGW       0.176000
     47 H41         27.9920   -45.5280   -13.1060 hn         1 IGW       0.373500
     48 H48         24.1820   -44.8750   -13.1650 h1         1 IGW       0.072700
     49 H49         23.4710   -43.2780   -13.3250 h1         1 IGW       0.072700
     50 H51         23.6570   -45.3410   -15.5910 h1         1 IGW       0.056700
     51 H50         22.2030   -44.9800   -14.6220 h1         1 IGW       0.056700
@<TRIPOS>BOND
     1     1     2 2   
     2     1    13 1   
     3     1    19 1   
     4     2    15 1   
     5     2    17 1   
     6     3     4 1   
     7     3    21 2   
     8     3    25 1   
     9     4    20 2   
    10     4    32 1   
    11     5    21 1   
    12     5    22 1   
    13     5    24 2   
    14     6     7 1   
    15     6    23 2   
    16     6    24 1   
    17     7     8 ar  
    18     7    12 ar  
    19     8     9 ar  
    20     8    33 1   
    21     9    10 ar  
    22     9    34 1   
    23    10    11 ar  
    24    10    35 1   
    25    11    12 ar  
    26    11    36 1   
    27    12    37 1   
    28    13    25 1   
    29    13    26 2   
    30    14    19 1   
    31    14    38 1   
    32    14    39 1   
    33    14    40 1   
    34    15    27 1   
    35    15    28 2   
    36    16    27 1   
    37    16    41 1   
    38    16    42 1   
    39    16    43 1   
    40    17    18 2   
    41    17    44 1   
    42    18    19 1   
    43    20    22 1   
    44    20    45 1   
    45    21    46 1   
    46    22    23 1   
    47    25    47 1   
    48    27    29 1   
    49    29    30 1   
    50    29    48 1   
    51    29    49 1   
    52    30    31 1   
    53    30    50 1   
    54    30    51 1   
@<TRIPOS>SUBSTRUCTURE
     1 IGW         1 TEMP              0 ****  ****    0 ROOT
