@<TRIPOS>MOLECULE
IGW
   51    54     1     0     0
SMALL
abcg2


@<TRIPOS>ATOM
      1 C01         28.9840   -44.3050   -15.0540 cc         1 IGW      -0.167600
      2 C02         27.6470   -43.9540   -15.2090 cd         1 IGW      -0.249600
      3 C06         29.3340   -46.7920   -12.2960 cc         1 IGW       0.101600
      4 C07         28.3170   -47.6690   -11.8140 cc         1 IGW      -0.195000
      5 C10         30.7510   -47.5970   -10.5560 cd         1 IGW      -0.035000
      6 C13         31.3670   -48.6910    -8.8750 cc         1 IGW       0.589900
      7 C15         32.2000   -49.1820    -7.7760 ca         1 IGW      -0.107900
      8 C16         33.4790   -48.6600    -7.5860 ca         1 IGW      -0.073000
      9 C17         34.2700   -49.1080    -6.5390 ca         1 IGW      -0.124000
     10 C18         33.7940   -50.0820    -5.6710 ca         1 IGW      -0.096000
     11 C19         32.5220   -50.6080    -5.8580 ca         1 IGW      -0.124000
     12 C20         31.7280   -50.1620    -6.9030 ca         1 IGW      -0.073000
     13 C22         29.7070   -45.0430   -13.9860 c          1 IGW       0.637700
     14 C24         31.0670   -43.7450   -16.3800 c3         1 IGW       0.067900
     15 C25         26.4820   -44.4230   -14.4240 c          1 IGW       0.656700
     16 C28         25.7440   -42.0790   -14.1820 c3         1 IGW       0.091300
     17 C03         27.6340   -43.1580   -16.3620 cd         1 IGW       0.262900
     18 N04         28.8430   -43.0370   -16.8700 nc         1 IGW      -0.505800
     19 N05         29.6500   -43.7150   -16.0700 na         1 IGW       0.180800
     20 C08         28.5350   -48.4690   -10.7430 cd         1 IGW      -0.052000
     21 C09         30.5580   -46.7630   -11.6680 cd         1 IGW      -0.143000
     22 N11         29.7420   -48.4180   -10.1340 na         1 IGW       0.281400
     23 N12         30.1290   -49.1180    -9.0630 nd         1 IGW      -0.601100
     24 N14         31.7950   -47.7680    -9.7570 nc         1 IGW      -0.404300
     25 N21         28.9800   -46.0190   -13.3920 ns         1 IGW      -0.396100
     26 O23         30.8540   -44.7590   -13.6970 o          1 IGW      -0.576100
     27 N26         25.5920   -43.5140   -14.0000 n          1 IGW      -0.382800
     28 O27         26.3550   -45.6290   -14.1940 o          1 IGW      -0.648100
     29 C29         24.3930   -43.9710   -13.3160 c3         1 IGW       0.059000
     30 C30         23.2000   -44.1150   -14.2280 c3         1 IGW       0.162600
     31 F31         22.8280   -42.8740   -14.7410 f          1 IGW      -0.272000
     32 H33         27.3500   -47.7010   -12.2960 ha         1 IGW       0.146000
     33 H36         33.8530   -47.8980    -8.2570 ha         1 IGW       0.131000
     34 H37         35.2590   -48.6920    -6.3990 ha         1 IGW       0.113500
     35 H38         34.4110   -50.4300    -4.8540 ha         1 IGW       0.111000
     36 H39         32.1450   -51.3690    -5.1870 ha         1 IGW       0.113500
     37 H40         30.7380   -50.5770    -7.0410 ha         1 IGW       0.131000
     38 H43         31.1770   -43.4030   -17.4040 h1         1 IGW       0.071700
     39 H42         31.6250   -43.0880   -15.7180 h1         1 IGW       0.071700
     40 H44         31.4570   -44.7550   -16.2980 h1         1 IGW       0.071700
     41 H47         25.2500   -41.5720   -13.3560 h1         1 IGW       0.050367
     42 H45         26.7910   -41.7910   -14.1660 h1         1 IGW       0.050367
     43 H46         25.2950   -41.7290   -15.1110 h1         1 IGW       0.050367
     44 H32         26.7880   -42.6940   -16.8450 h4         1 IGW       0.048100
     45 H34         27.8020   -49.1480   -10.3340 h4         1 IGW       0.162000
     46 H35         31.3700   -46.1300   -11.9830 ha         1 IGW       0.176000
     47 H41         28.0280   -46.1510   -13.7430 hn         1 IGW       0.373500
     48 H48         24.5820   -44.9370   -12.8510 h1         1 IGW       0.072700
     49 H49         24.1670   -43.2670   -12.5130 h1         1 IGW       0.072700
     50 H51         23.4220   -44.7780   -15.0660 h1         1 IGW       0.056700
     51 H50         22.3560   -44.5220   -13.6680 h1         1 IGW       0.056700
@<TRIPOS>BOND
     1     1     2 2   
     2     1    13 1   
     3     1    19 1   
     4     2    15 1   
     5     2    17 1   
     6     3     4 1   
     7     3    21 2   
     8     3    25 1   
     9     4    20 2   
    10     4    32 1   
    11     5    21 1   
    12     5    22 1   
    13     5    24 2   
    14     6     7 1   
    15     6    23 2   
    16     6    24 1   
    17     7     8 ar  
    18     7    12 ar  
    19     8     9 ar  
    20     8    33 1   
    21     9    10 ar  
    22     9    34 1   
    23    10    11 ar  
    24    10    35 1   
    25    11    12 ar  
    26    11    36 1   
    27    12    37 1   
    28    13    25 1   
    29    13    26 2   
    30    14    19 1   
    31    14    38 1   
    32    14    39 1   
    33    14    40 1   
    34    15    27 1   
    35    15    28 2   
    36    16    27 1   
    37    16    41 1   
    38    16    42 1   
    39    16    43 1   
    40    17    18 2   
    41    17    44 1   
    42    18    19 1   
    43    20    22 1   
    44    20    45 1   
    45    21    46 1   
    46    22    23 1   
    47    25    47 1   
    48    27    29 1   
    49    29    30 1   
    50    29    48 1   
    51    29    49 1   
    52    30    31 1   
    53    30    50 1   
    54    30    51 1   
@<TRIPOS>SUBSTRUCTURE
     1 IGW         1 TEMP              0 ****  ****    0 ROOT
