@<TRIPOS>MOLECULE
IGX
   16    16     1     0     0
SMALL
abcg2


@<TRIPOS>ATOM
      1 C01         18.1320    24.0040     2.7570 c3         1 IGX       0.160900
      2 C03         17.5230    26.1870     3.3940 cc         1 IGX       0.318700
      3 C04         16.2030    26.0290     3.1190 cd         1 IGX      -0.495200
      4 C05         15.3000    27.1220     3.3440 c          1 IGX       0.608200
      5 C08         17.2190    28.4660     4.1300 c          1 IGX       0.631000
      6 N07         15.8950    28.2780     3.8460 ns         1 IGX      -0.475500
      7 N10         18.0040    27.3680     3.8800 ns         1 IGX      -0.529600
      8 O02         18.4790    25.2950     3.2490 os         1 IGX      -0.349100
      9 O06         14.1000    27.1040     3.1340 o          1 IGX      -0.533000
     10 O09         17.6710    29.5030     4.5650 o          1 IGX      -0.548000
     11 H1          19.0570    23.4370     2.7230 h1         1 IGX       0.058033
     12 H2          17.4250    23.5070     3.4230 h1         1 IGX       0.058033
     13 H3          17.7070    24.0670     1.7540 h1         1 IGX       0.058033
     14 H6          15.2880    29.0690     4.0180 hn         1 IGX       0.345500
     15 H4          15.8030    25.1050     2.7330 ha         1 IGX       0.223000
     16 H5          18.9930    27.4530     4.0780 hn         1 IGX       0.469000
@<TRIPOS>BOND
     1     1     8 1   
     2     1    11 1   
     3     1    12 1   
     4     1    13 1   
     5     2     3 2   
     6     2     7 1   
     7     2     8 1   
     8     3     4 1   
     9     3    15 1   
    10     4     6 1   
    11     4     9 2   
    12     5     6 1   
    13     5     7 1   
    14     5    10 2   
    15     6    14 1   
    16     7    16 1   
@<TRIPOS>SUBSTRUCTURE
     1 IGX         1 TEMP              0 ****  ****    0 ROOT
