@<TRIPOS>MOLECULE
IGX
   16    16     1     0     0
SMALL
No Charge or Current Charge


@<TRIPOS>ATOM
      1 C01         18.1120    23.9340     2.7280 c3         1 IGX       0.160900
      2 C03         17.6050    26.2480     3.4340 cc         1 IGX       0.318700
      3 C04         16.2820    26.0530     3.1450 cd         1 IGX      -0.495200
      4 C05         15.3270    27.1390     3.3560 c          1 IGX       0.608200
      5 C08         17.1940    28.5090     4.1390 c          1 IGX       0.631000
      6 N07         15.8890    28.2790     3.8410 ns         1 IGX      -0.475500
      7 N10         18.0130    27.4510     3.9150 ns         1 IGX      -0.529600
      8 O02         18.4970    25.2280     3.2350 os         1 IGX      -0.349100
      9 O06         14.1350    27.0450     3.1230 o          1 IGX      -0.533000
     10 O09         17.5970    29.5710     4.5710 o          1 IGX      -0.548000
     11 H1          18.9890    23.2800     2.6510 h1         1 IGX       0.058033
     12 H2          17.3880    23.4500     3.3950 h1         1 IGX       0.058033
     13 H3          17.6690    24.0210     1.7270 h1         1 IGX       0.058033
     14 H6          15.2590    29.0490     3.9980 hn         1 IGX       0.345500
     15 H4          15.8510    25.1400     2.7600 ha         1 IGX       0.223000
     16 H5          18.9900    27.5970     4.1290 hn         1 IGX       0.469000
@<TRIPOS>BOND
     1     1     8 1   
     2     1    11 1   
     3     1    12 1   
     4     1    13 1   
     5     2     3 2   
     6     2     7 1   
     7     2     8 1   
     8     3     4 1   
     9     3    15 1   
    10     4     6 1   
    11     4     9 2   
    12     5     6 1   
    13     5     7 1   
    14     5    10 2   
    15     6    14 1   
    16     7    16 1   
@<TRIPOS>SUBSTRUCTURE
     1 IGX         1 TEMP              0 ****  ****    0 ROOT
