@<TRIPOS>MOLECULE
IGZ
   54    58     1     0     0
SMALL
No Charge or Current Charge


@<TRIPOS>ATOM
      1 C11         32.2920   -49.0440    -7.9040 ca         1 IGZ      -0.098500
      2 C13         34.0310   -49.5880    -5.7340 ca         1 IGZ      -0.112000
      3 C15         34.2290   -48.4460    -6.5260 ca         1 IGZ      -0.115500
      4 C16         32.1050   -50.1910    -7.0980 ca         1 IGZ      -0.096500
      5 C17         29.5070   -45.8130   -14.9010 c          1 IGZ       0.626700
      6 C19         28.8210   -44.7470   -15.7150 cc         1 IGZ      -0.150600
      7 C20         27.5590   -44.1300   -15.6220 cd         1 IGZ      -0.256600
      8 C21         27.5100   -43.2010   -16.6900 cd         1 IGZ       0.261900
      9 C25         26.4170   -44.3110   -14.6590 c          1 IGZ       0.667700
     10 C28         25.0360   -42.7780   -13.7190 cy         1 IGZ       0.101000
     11 C1          29.3370   -47.3780   -12.9230 c6         1 IGZ       0.113700
     12 C2          28.1490   -48.1040   -12.2400 c6         1 IGZ      -0.106400
     13 C3          28.6380   -49.2740   -11.3480 c6         1 IGZ       0.077600
     14 C4          30.2530   -46.7450   -11.8410 c6         1 IGZ      -0.126700
     15 C5          30.5530   -47.7320   -10.7450 cc         1 IGZ       0.414800
     16 N6          29.7840   -48.8540   -10.5190 na         1 IGZ      -0.165500
     17 C7          30.3080   -49.5190    -9.4350 cc         1 IGZ      -0.212000
     18 C8          31.3830   -48.7620    -9.0370 cd         1 IGZ       0.298500
     19 N9          31.5250   -47.6540    -9.8530 nd         1 IGZ      -0.670000
     20 C12         33.3670   -48.1750    -7.6020 ca         1 IGZ      -0.096500
     21 C14         32.9690   -50.4590    -6.0210 ca         1 IGZ      -0.115500
     22 O18         30.6330   -46.2120   -15.1590 o          1 IGZ      -0.614100
     23 N22         28.5910   -43.1730   -17.4270 nc         1 IGZ      -0.515800
     24 N23         29.3910   -44.1150   -16.8330 na         1 IGZ       0.177800
     25 N26         25.3680   -43.4120   -15.0390 nj         1 IGZ      -0.405800
     26 O27         26.4870   -45.1210   -13.7430 o          1 IGZ      -0.646100
     27 C29         23.5550   -43.1590   -14.0360 cy         1 IGZ      -0.117400
     28 C30         24.1550   -44.2910   -14.9300 cy         1 IGZ       0.101000
     29 H1          34.6990   -49.7970    -4.9010 ha         1 IGZ       0.109000
     30 H2          35.0510   -47.7690    -6.3060 ha         1 IGZ       0.109000
     31 H3          31.2900   -50.8810    -7.2980 ha         1 IGZ       0.118500
     32 H4          26.7030   -42.5290   -16.9590 h4         1 IGZ       0.043100
     33 H5          30.8840   -43.7120   -18.2810 h1         1 IGZ       0.070033
     34 H6          31.4940   -44.1460   -16.6610 h1         1 IGZ       0.070033
     35 H7          30.8000   -45.4070   -17.7270 h1         1 IGZ       0.070033
     36 H9          25.2240   -41.6990   -13.6990 h1         1 IGZ       0.060950
     37 H10         29.9130   -48.1160   -13.5030 h1         1 IGZ       0.078700
     38 H11         27.5780   -47.3900   -11.6290 hc         1 IGZ       0.068200
     39 H12         27.4530   -48.4910   -12.9970 hc         1 IGZ       0.068200
     40 H13         27.8220   -49.6280   -10.7030 h1         1 IGZ       0.058700
     41 H14         28.9580   -50.1130   -11.9820 h1         1 IGZ       0.058700
     42 H15         31.1830   -46.3890   -12.3030 hc         1 IGZ       0.078200
     43 H16         29.7630   -45.8620   -11.4090 hc         1 IGZ       0.078200
     44 H17         29.8960   -50.4420    -9.0480 h4         1 IGZ       0.156000
     45 H19         33.5390   -47.2850    -8.2020 ha         1 IGZ       0.118500
     46 H20         32.8130   -51.3450    -5.4090 ha         1 IGZ       0.109000
     47 H21         22.9510   -43.4890   -13.1850 hc         1 IGZ       0.064700
     48 H22         23.0040   -42.3930   -14.5920 hc         1 IGZ       0.064700
     49 H23         23.6340   -44.4280   -15.8840 h1         1 IGZ       0.060950
     50 H24         24.2580   -45.2540   -14.4150 h1         1 IGZ       0.060950
     51 N10         28.8360   -46.3480   -13.8380 ns         1 IGZ      -0.493900
     52 C24         30.7240   -44.3600   -17.4110 c3         1 IGZ       0.071900
     53 H8          25.4290   -43.2470   -12.8080 h1         1 IGZ       0.060950
     54 H18         27.9070   -45.9810   -13.6750 hn         1 IGZ       0.369500
@<TRIPOS>BOND
     1     1     4 ar  
     2     1    18 1   
     3     1    20 ar  
     4     2     3 ar  
     5     2    21 ar  
     6     2    29 1   
     7     3    20 ar  
     8     3    30 1   
     9     4    21 ar  
    10     4    31 1   
    11     5     6 1   
    12     5    22 2   
    13     5    51 1   
    14     6     7 2   
    15     6    24 1   
    16     7     8 1   
    17     7     9 1   
    18     8    23 2   
    19     8    32 1   
    20     9    25 1   
    21     9    26 2   
    22    10    25 1   
    23    10    27 1   
    24    10    36 1   
    25    10    53 1   
    26    11    12 1   
    27    11    14 1   
    28    11    37 1   
    29    11    51 1   
    30    12    13 1   
    31    12    38 1   
    32    12    39 1   
    33    13    16 1   
    34    13    40 1   
    35    13    41 1   
    36    14    15 1   
    37    14    42 1   
    38    14    43 1   
    39    15    16 1   
    40    15    19 2   
    41    16    17 1   
    42    17    18 2   
    43    17    44 1   
    44    18    19 1   
    45    20    45 1   
    46    21    46 1   
    47    23    24 1   
    48    24    52 1   
    49    25    28 1   
    50    27    28 1   
    51    27    47 1   
    52    27    48 1   
    53    28    49 1   
    54    28    50 1   
    55    33    52 1   
    56    34    52 1   
    57    35    52 1   
    58    51    54 1   
@<TRIPOS>SUBSTRUCTURE
     1 IGZ         1 TEMP              0 ****  ****    0 ROOT
