@<TRIPOS>MOLECULE
IGZ
   54    58     1     0     0
SMALL
bcc


@<TRIPOS>ATOM
      1 C11         31.8650   -48.9080    -7.9060 ca         1 IGZ      -0.098500
      2 C13         33.2080   -49.0680    -5.4470 ca         1 IGZ      -0.130000
      3 C15         32.9730   -47.8350    -6.0400 ca         1 IGZ      -0.133500
      4 C16         32.1090   -50.1440    -7.3000 ca         1 IGZ      -0.114500
      5 C17         29.5310   -45.8040   -14.9030 c          1 IGZ       0.693700
      6 C19         28.6760   -44.9020   -15.7290 cc         1 IGZ      -0.099900
      7 C20         27.3790   -44.4150   -15.5690 cd         1 IGZ      -0.321900
      8 C21         27.2090   -43.5340   -16.6480 cd         1 IGZ       0.327200
      9 C25         26.3640   -44.7600   -14.5550 c          1 IGZ       0.734700
     10 C28         25.5660   -42.3230   -14.2760 cy         1 IGZ       0.101000
     11 C1          29.5410   -47.6040   -13.2620 c6         1 IGZ       0.113700
     12 C2          28.6710   -48.8270   -12.9950 c6         1 IGZ      -0.106400
     13 C3          29.4250   -49.8480   -12.1610 c6         1 IGZ       0.048300
     14 C4          29.8480   -46.9020   -11.9360 c6         1 IGZ      -0.126700
     15 C5          30.3190   -47.8790   -10.9160 cc         1 IGZ       0.414800
     16 N6          30.0660   -49.2030   -11.0280 na         1 IGZ      -0.186900
     17 C7          30.6040   -49.8150    -9.9340 cc         1 IGZ      -0.244600
     18 C8          31.1650   -48.8120    -9.1850 cd         1 IGZ       0.363800
     19 N9          30.9770   -47.6120    -9.8180 nd         1 IGZ      -0.670000
     20 C12         32.3090   -47.7550    -7.2550 ca         1 IGZ      -0.114500
     21 C14         32.7710   -50.2230    -6.0850 ca         1 IGZ      -0.133500
     22 O18         30.7500   -45.6880   -14.9170 o          1 IGZ      -0.614100
     23 N22         28.2860   -43.4900   -17.4020 nc         1 IGZ      -0.515800
     24 N23         29.1660   -44.3030   -16.8350 na         1 IGZ       0.156400
     25 N26         25.5430   -43.7830   -14.1800 nj         1 IGZ      -0.472800
     26 O27         26.2490   -45.8980   -14.0870 o          1 IGZ      -0.646100
     27 C29         24.5230   -42.2760   -13.1430 cy         1 IGZ      -0.117400
     28 C30         24.5420   -43.8180   -13.1220 cy         1 IGZ       0.101000
     29 H1          33.7260   -49.1300    -4.4990 ha         1 IGZ       0.127000
     30 H2          33.3080   -46.9270    -5.5540 ha         1 IGZ       0.127000
     31 H3          31.7820   -51.0590    -7.7790 ha         1 IGZ       0.136500
     32 H4          26.3350   -42.9640   -16.9200 h4         1 IGZ       0.043100
     33 H5          30.3880   -44.0040   -18.4520 h1         1 IGZ       0.070033
     34 H6          31.2310   -43.9100   -16.8950 h1         1 IGZ       0.070033
     35 H7          30.7490   -45.4840   -17.5500 h1         1 IGZ       0.070033
     36 H9          25.2130   -41.9360   -15.2320 h1         1 IGZ       0.060950
     37 H10         30.4790   -47.9320   -13.7200 h1         1 IGZ       0.078700
     38 H11         27.7560   -48.5200   -12.4800 hc         1 IGZ       0.068200
     39 H12         28.3770   -49.3000   -13.9320 hc         1 IGZ       0.068200
     40 H13         28.7500   -50.6190   -11.7920 h1         1 IGZ       0.058700
     41 H14         30.1900   -50.3380   -12.7660 h1         1 IGZ       0.058700
     42 H15         30.6000   -46.1230   -12.0700 hc         1 IGZ       0.078200
     43 H16         28.9360   -46.4100   -11.5810 hc         1 IGZ       0.078200
     44 H17         30.5380   -50.8820    -9.7920 h4         1 IGZ       0.174000
     45 H19         32.1290   -46.7880    -7.7070 ha         1 IGZ       0.136500
     46 H20         32.9480   -51.1910    -5.6350 ha         1 IGZ       0.127000
     47 H21         24.8770   -41.8120   -12.2260 hc         1 IGZ       0.064700
     48 H22         23.5700   -41.8340   -13.4220 hc         1 IGZ       0.064700
     49 H23         23.6120   -44.3050   -13.4180 h1         1 IGZ       0.060950
     50 H24         24.9020   -44.2740   -12.1980 h1         1 IGZ       0.060950
     51 N10         28.8720   -46.7190   -14.1890 ns         1 IGZ      -0.560900
     52 C24         30.4690   -44.4390   -17.4610 c3         1 IGZ       0.042600
     53 H8          26.5390   -41.8840   -14.0500 h1         1 IGZ       0.060950
     54 H18         27.8500   -46.6750   -14.1720 hn         1 IGZ       0.369500
@<TRIPOS>BOND
     1     1     4 ar  
     2     1    18 1   
     3     1    20 ar  
     4     2     3 ar  
     5     2    21 ar  
     6     2    29 1   
     7     3    20 ar  
     8     3    30 1   
     9     4    21 ar  
    10     4    31 1   
    11     5     6 1   
    12     5    22 2   
    13     5    51 1   
    14     6     7 2   
    15     6    24 1   
    16     7     8 1   
    17     7     9 1   
    18     8    23 2   
    19     8    32 1   
    20     9    25 1   
    21     9    26 2   
    22    10    25 1   
    23    10    27 1   
    24    10    36 1   
    25    10    53 1   
    26    11    12 1   
    27    11    14 1   
    28    11    37 1   
    29    11    51 1   
    30    12    13 1   
    31    12    38 1   
    32    12    39 1   
    33    13    16 1   
    34    13    40 1   
    35    13    41 1   
    36    14    15 1   
    37    14    42 1   
    38    14    43 1   
    39    15    16 1   
    40    15    19 2   
    41    16    17 1   
    42    17    18 2   
    43    17    44 1   
    44    18    19 1   
    45    20    45 1   
    46    21    46 1   
    47    23    24 1   
    48    24    52 1   
    49    25    28 1   
    50    27    28 1   
    51    27    47 1   
    52    27    48 1   
    53    28    49 1   
    54    28    50 1   
    55    33    52 1   
    56    34    52 1   
    57    35    52 1   
    58    51    54 1   
@<TRIPOS>SUBSTRUCTURE
     1 IGZ         1 TEMP              0 ****  ****    0 ROOT
