@<TRIPOS>MOLECULE
IH0
   17    17     1     0     0
SMALL
No Charge or Current Charge


@<TRIPOS>ATOM
      1 C           11.4570    62.1720    10.6040 c3         1 IH0      -0.059800
      2 O           13.9260    61.8800    11.7390 o          1 IH0      -0.513000
      3 C1          13.5160    60.9570     9.2180 ca         1 IH0      -0.068500
      4 C2          14.2240    62.0260     8.6370 ca         1 IH0      -0.048000
      5 C3          14.6770    61.9280     7.3090 ca         1 IH0      -0.123000
      6 C4          14.4220    60.7640     6.5630 ca         1 IH0      -0.080000
      7 C5          13.7150    59.6960     7.1440 ca         1 IH0      -0.123000
      8 C6          13.2610    59.7920     8.4720 ca         1 IH0      -0.048000
      9 S           12.9120    61.0740    10.9450 sx         1 IH0       0.232200
     10 H1          11.8120    63.0820    10.1070 h1         1 IH0       0.078367
     11 H2          10.7570    61.6310     9.9560 h1         1 IH0       0.078367
     12 H3          10.9780    62.4210    11.5590 h1         1 IH0       0.078367
     13 H5          14.4220    62.9280     9.2120 ha         1 IH0       0.126500
     14 H6          15.2240    62.7530     6.8600 ha         1 IH0       0.115000
     15 H7          14.7730    60.6880     5.5350 ha         1 IH0       0.114000
     16 H8          13.5180    58.7960     6.5670 ha         1 IH0       0.115000
     17 H9          12.7130    58.9660     8.9190 ha         1 IH0       0.126500
@<TRIPOS>BOND
     1     1     9 1   
     2     1    10 1   
     3     1    11 1   
     4     1    12 1   
     5     2     9 2   
     6     3     4 ar  
     7     3     8 ar  
     8     3     9 1   
     9     4     5 ar  
    10     4    13 1   
    11     5     6 ar  
    12     5    14 1   
    13     6     7 ar  
    14     6    15 1   
    15     7     8 ar  
    16     7    16 1   
    17     8    17 1   
@<TRIPOS>SUBSTRUCTURE
     1 IH0         1 TEMP              0 ****  ****    0 ROOT
