@<TRIPOS>MOLECULE
IH0
   17    17     1     0     0
SMALL
bcc


@<TRIPOS>ATOM
      1 C           11.4040    61.8950    10.6010 c3         1 IH0      -0.059800
      2 O           13.8430    62.4270    11.5040 o          1 IH0      -0.486200
      3 C1          13.5780    61.0940     9.2060 ca         1 IH0      -0.068500
      4 C2          14.4620    62.0100     8.6600 ca         1 IH0      -0.066000
      5 C3          14.8770    61.8440     7.3450 ca         1 IH0      -0.141000
      6 C4          14.4140    60.7710     6.5950 ca         1 IH0      -0.098000
      7 C5          13.5370    59.8530     7.1590 ca         1 IH0      -0.141000
      8 C6          13.1230    60.0050     8.4740 ca         1 IH0      -0.066000
      9 S           13.0710    61.2720    10.9190 sx         1 IH0       0.205400
     10 H1          11.4690    62.8140    10.0210 h1         1 IH0       0.078367
     11 H2          10.8250    61.1440    10.0670 h1         1 IH0       0.078367
     12 H3          10.9430    62.0900    11.5680 h1         1 IH0       0.078367
     13 H5          14.8250    62.8410     9.2500 ha         1 IH0       0.144500
     14 H6          15.5660    62.5540     6.9070 ha         1 IH0       0.133000
     15 H7          14.7410    60.6460     5.5710 ha         1 IH0       0.132000
     16 H8          13.1800    59.0120     6.5780 ha         1 IH0       0.133000
     17 H9          12.4500    59.2810     8.9200 ha         1 IH0       0.144500
@<TRIPOS>BOND
     1     1     9 1   
     2     1    10 1   
     3     1    11 1   
     4     1    12 1   
     5     2     9 2   
     6     3     4 ar  
     7     3     8 ar  
     8     3     9 1   
     9     4     5 ar  
    10     4    13 1   
    11     5     6 ar  
    12     5    14 1   
    13     6     7 ar  
    14     6    15 1   
    15     7     8 ar  
    16     7    16 1   
    17     8    17 1   
@<TRIPOS>SUBSTRUCTURE
     1 IH0         1 TEMP              0 ****  ****    0 ROOT
