@<TRIPOS>MOLECULE
IH1
   65    68     1     0     0
SMALL
bcc


@<TRIPOS>ATOM
      1 C27         -3.3710     0.0380    -3.4170 ca         1 IH1       0.029100
      2 C28         -2.3400     0.5070    -4.2190 ca         1 IH1      -0.122500
      3 C29         -1.0770    -0.0470    -4.0890 ca         1 IH1      -0.031500
      4 C24         -0.8710    -1.0570    -3.1610 ca         1 IH1      -0.257500
      5 C25         -1.9020    -1.5280    -2.3610 ca         1 IH1      -0.031500
      6 C26         -3.1660    -0.9740    -2.4890 ca         1 IH1      -0.122500
      7 BR          -5.0860     0.7910    -3.5920 br         1 IH1      -0.079100
      8 S            0.7510    -1.7470    -2.9790 sy         1 IH1       1.083300
      9 O1           1.4940    -1.5270    -4.2180 o          1 IH1      -0.588300
     10 O2           0.6280    -3.1070    -2.4620 o          1 IH1      -0.588300
     11 C23          1.4850    -0.7290    -1.7020 c3         1 IH1      -0.222600
     12 C22          2.9120    -1.1880    -1.4080 c3         1 IH1       0.153000
     13 C13          3.3870     0.7080     2.9610 c6         1 IH1       0.047900
     14 C14          4.1650     1.9030     3.4360 c2         1 IH1      -0.177200
     15 C15          4.9820     2.5890     2.6470 c2         1 IH1      -0.143200
     16 C16          5.1810     2.2710     1.2020 c6         1 IH1       0.149200
     17 C19          3.9960     0.8510    -0.4650 c          1 IH1       0.821500
     18 C21          3.3400    -0.7560     1.0030 c          1 IH1       0.808500
     19 N17          4.1930     1.2990     0.7990 n          1 IH1      -0.348400
     20 N18          3.9340     0.2680     1.7010 n          1 IH1      -0.280400
     21 O21          2.8420    -1.7550     1.4660 o          1 IH1      -0.591500
     22 O19          4.2460     1.4240    -1.5020 o          1 IH1      -0.605500
     23 N20          3.4610    -0.4160    -0.3250 n          1 IH1      -0.505400
     24 C1          -0.1260     1.6810     4.0850 c3         1 IH1       0.100000
     25 C2          -0.7940     0.9140     5.2200 c6         1 IH1      -0.082700
     26 C3          -2.2230     1.4130     5.4170 c6         1 IH1      -0.070900
     27 C4          -2.9290     0.6680     6.5430 c6         1 IH1      -0.068900
     28 C5          -2.9270    -0.8390     6.2980 c6         1 IH1      -0.163000
     29 C6          -1.4940    -1.3490     6.1010 c6         1 IH1      -0.068900
     30 C7          -0.7820    -0.5940     4.9850 c6         1 IH1      -0.070900
     31 C8          -3.6090    -1.6170     7.4070 c2         1 IH1       0.622200
     32 N11         -4.4360    -2.6050     6.9740 nv         1 IH1      -0.939800
     33 N10         -3.4590    -1.4120     8.6610 n2         1 IH1      -0.853100
     34 HC28        -2.5040     1.2940    -4.9430 ha         1 IH1       0.154500
     35 HC29        -0.2720     0.3130    -4.7150 ha         1 IH1       0.161500
     36 HC25        -1.7410    -2.3200    -1.6430 ha         1 IH1       0.161500
     37 HC26        -3.9730    -1.3380    -1.8690 ha         1 IH1       0.154500
     38 H231         0.8510    -0.8080    -0.8170 h1         1 IH1       0.115200
     39 H232         1.4630     0.3020    -2.0580 h1         1 IH1       0.115200
     40 H221         3.5510    -1.0670    -2.2810 h1         1 IH1       0.086200
     41 H222         2.9350    -2.2370    -1.1210 h1         1 IH1       0.086200
     42 HC13         3.5070    -0.1050     3.6820 h1         1 IH1       0.107700
     43 HC14         4.0480     2.1800     4.4760 ha         1 IH1       0.136000
     44 HC15         5.5500     3.4210     3.0400 ha         1 IH1       0.142000
     45 H161         5.0410     3.1660     0.5960 h1         1 IH1       0.074700
     46 H162         6.2000     1.9090     1.0240 h1         1 IH1       0.074700
     47 HC11        -0.6180     1.4530     3.1390 h1         1 IH1       0.060200
     48 HC12        -0.2310     2.7570     4.2540 h1         1 IH1       0.060200
     49 HC2         -0.2400     1.1230     6.1460 hc         1 IH1       0.044700
     50 HC31        -2.7880     1.2890     4.4860 hc         1 IH1       0.046700
     51 HC32        -2.2170     2.4840     5.6350 hc         1 IH1       0.046700
     52 HC41        -3.9560     1.0280     6.6450 hc         1 IH1       0.047450
     53 HC42        -2.4220     0.8980     7.4870 hc         1 IH1       0.047450
     54 HC5         -3.4760    -1.0230     5.3680 hc         1 IH1       0.059700
     55 HC61        -0.9370    -1.2340     7.0360 hc         1 IH1       0.047450
     56 HC62        -1.5070    -2.4180     5.8750 hc         1 IH1       0.047450
     57 HN9          1.8260     1.3600     4.8030 hn         1 IH1       0.312500
     58 HC71        -1.2680    -0.8130     4.0270 hc         1 IH1       0.046700
     59 HC72         0.2450    -0.9570     4.9000 hc         1 IH1       0.046700
     60 H111        -4.7370    -3.2950     7.6420 hn         1 IH1       0.419300
     61 H112        -4.3590    -2.9290     6.0250 hn         1 IH1       0.419300
     62 HN10        -2.8440    -0.6230     8.8210 hn         1 IH1       0.382400
     63 C12          1.8870     1.0350     2.8110 c          1 IH1       0.655100
     64 O12          1.3500     0.9970     1.7160 o          1 IH1      -0.596100
     65 N9           1.2770     1.3450     3.9570 ns         1 IH1      -0.562900
@<TRIPOS>BOND
     1     1     2 ar  
     2     1     6 ar  
     3     1     7 1   
     4     2     3 ar  
     5     2    34 1   
     6     3     4 ar  
     7     3    35 1   
     8     4     5 ar  
     9     4     8 1   
    10     5     6 ar  
    11     5    36 1   
    12     6    37 1   
    13     8     9 2   
    14     8    10 2   
    15     8    11 1   
    16    11    12 1   
    17    11    38 1   
    18    11    39 1   
    19    12    23 1   
    20    12    40 1   
    21    12    41 1   
    22    13    14 1   
    23    13    20 1   
    24    13    42 1   
    25    13    63 1   
    26    14    15 2   
    27    14    43 1   
    28    15    16 1   
    29    15    44 1   
    30    16    19 1   
    31    16    45 1   
    32    16    46 1   
    33    17    19 1   
    34    17    22 2   
    35    17    23 1   
    36    18    20 1   
    37    18    21 2   
    38    18    23 1   
    39    19    20 1   
    40    24    25 1   
    41    24    47 1   
    42    24    48 1   
    43    24    65 1   
    44    25    26 1   
    45    25    30 1   
    46    25    49 1   
    47    26    27 1   
    48    26    50 1   
    49    26    51 1   
    50    27    28 1   
    51    27    52 1   
    52    27    53 1   
    53    28    29 1   
    54    28    31 1   
    55    28    54 1   
    56    29    30 1   
    57    29    55 1   
    58    29    56 1   
    59    30    58 1   
    60    30    59 1   
    61    31    32 1   
    62    31    33 2   
    63    32    60 1   
    64    32    61 1   
    65    33    62 1   
    66    57    65 1   
    67    63    64 2   
    68    63    65 1   
@<TRIPOS>SUBSTRUCTURE
     1 IH1         1 TEMP              0 ****  ****    0 ROOT
