@<TRIPOS>MOLECULE
IH1
   65    68     1     0     0
SMALL
No Charge or Current Charge


@<TRIPOS>ATOM
      1 C27         -3.5740    -0.6330    -3.8410 ca         1 IH1       0.029100
      2 C28         -2.4750    -0.1830    -4.5910 ca         1 IH1      -0.104500
      3 C29         -1.1820    -0.6450    -4.2920 ca         1 IH1      -0.013500
      4 C24         -0.9880    -1.5650    -3.2380 ca         1 IH1      -0.257500
      5 C25         -2.0950    -2.0110    -2.4850 ca         1 IH1      -0.013500
      6 C26         -3.3860    -1.5440    -2.7900 ca         1 IH1      -0.104500
      7 Br          -5.3320     0.0010    -4.2510 br         1 IH1      -0.079100
      8 S            0.6720    -2.1500    -2.8410 sy         1 IH1       1.052500
      9 O1           1.5260    -1.9980    -4.0260 o          1 IH1      -0.517500
     10 O2           0.5660    -3.4350    -2.1380 o          1 IH1      -0.517500
     11 C23          1.2440    -0.9500    -1.6360 c3         1 IH1      -0.333400
     12 C22          2.6660    -1.2700    -1.1470 c3         1 IH1       0.153000
     13 C13          3.4380     1.1870     3.1590 c6         1 IH1       0.047900
     14 C14          4.4500     2.3110     3.4320 c2         1 IH1      -0.227200
     15 C15          5.2310     2.8670     2.4800 c2         1 IH1      -0.193200
     16 C16          5.2130     2.4490     1.0110 c6         1 IH1       0.149200
     17 C19          3.8570     0.8420    -0.4690 c          1 IH1       0.612000
     18 C21          2.9780    -0.4430     1.2070 c          1 IH1       0.599000
     19 N17          4.1370     1.4820     0.7420 n          1 IH1      -0.281400
     20 N18          3.6470     0.6360     1.8020 n          1 IH1      -0.213400
     21 O21          2.3690    -1.3330     1.7830 o          1 IH1      -0.516000
     22 O19          4.2230     1.1920    -1.5810 o          1 IH1      -0.530000
     23 N20          3.1260    -0.2870    -0.1560 n          1 IH1      -0.371400
     24 C1           0.3420     2.2440     5.2620 c3         1 IH1       0.100000
     25 C2          -0.4800     1.0400     5.8080 c6         1 IH1      -0.082700
     26 C3          -1.8120     1.5280     6.4430 c6         1 IH1      -0.070900
     27 C4          -2.6400     0.3490     7.0120 c6         1 IH1      -0.068900
     28 C5          -2.9320    -0.7190     5.9190 c6         1 IH1      -0.163000
     29 C6          -1.6000    -1.2150     5.2870 c6         1 IH1      -0.068900
     30 C7          -0.7650    -0.0390     4.7220 c6         1 IH1      -0.070900
     31 C8          -3.7680    -1.8770     6.4570 c2         1 IH1       0.622200
     32 N11         -4.8900    -2.1710     5.7740 nv         1 IH1      -1.050200
     33 N10         -3.4720    -2.5920     7.4530 n2         1 IH1      -0.853100
     34 HC28        -2.6240     0.5250    -5.4030 ha         1 IH1       0.136500
     35 HC29        -0.3380    -0.2860    -4.8800 ha         1 IH1       0.143500
     36 HC25        -1.9630    -2.7160    -1.6650 ha         1 IH1       0.143500
     37 HC26        -4.2390    -1.8900    -2.2100 ha         1 IH1       0.136500
     38 H231         0.5360    -0.9690    -0.8010 h1         1 IH1       0.115200
     39 H232         1.2140     0.0320    -2.1190 h1         1 IH1       0.115200
     40 H221         3.3630    -1.2770    -1.9970 h1         1 IH1       0.086200
     41 H222         2.6900    -2.2720    -0.6950 h1         1 IH1       0.086200
     42 HC13         3.6250     0.3730     3.8740 h1         1 IH1       0.107700
     43 HC14         4.5180     2.6570     4.4660 ha         1 IH1       0.186000
     44 HC15         5.9330     3.6630     2.7340 ha         1 IH1       0.192000
     45 H161         5.0690     3.3330     0.3730 h1         1 IH1       0.074700
     46 H162         6.1790     1.9970     0.7410 h1         1 IH1       0.074700
     47 HC11        -0.2270     2.7420     4.4660 h1         1 IH1       0.060200
     48 HC12         0.4830     2.9720     6.0720 h1         1 IH1       0.060200
     49 HC2          0.1310     0.5830     6.5990 hc         1 IH1       0.044700
     50 HC31        -2.4080     2.0670     5.6930 hc         1 IH1       0.046700
     51 HC32        -1.6020     2.2470     7.2470 hc         1 IH1       0.046700
     52 HC41        -3.5850     0.7300     7.4240 hc         1 IH1       0.047450
     53 HC42        -2.0960    -0.1040     7.8530 hc         1 IH1       0.047450
     54 HC5         -3.5050    -0.2170     5.1260 hc         1 IH1       0.059700
     55 HC61        -1.0060    -1.7560     6.0370 hc         1 IH1       0.047450
     56 HC62        -1.8120    -1.9330     4.4830 hc         1 IH1       0.047450
     57 HN9          2.4100     1.7160     5.4330 hn         1 IH1       0.312500
     58 HC71        -1.2960     0.4160     3.8740 hc         1 IH1       0.046700
     59 HC72         0.1780    -0.4350     4.3210 hc         1 IH1       0.046700
     60 H111        -5.2290    -3.1020     5.9890 hn         1 IH1       0.474500
     61 H112        -4.8510    -1.9510     4.7860 hn         1 IH1       0.474500
     62 HN10        -2.5860    -2.2390     7.8390 hn         1 IH1       0.382400
     63 C12          1.9740     1.6320     3.4320 c          1 IH1       0.588100
     64 O12          1.1490     1.7960     2.5410 o          1 IH1      -0.596100
     65 N9           1.6670     1.8610     4.7600 ns         1 IH1      -0.495900
@<TRIPOS>BOND
     1     1     2 ar  
     2     1     6 ar  
     3     1     7 1   
     4     2     3 ar  
     5     2    34 1   
     6     3     4 ar  
     7     3    35 1   
     8     4     5 ar  
     9     4     8 1   
    10     5     6 ar  
    11     5    36 1   
    12     6    37 1   
    13     8     9 2   
    14     8    10 2   
    15     8    11 1   
    16    11    12 1   
    17    11    38 1   
    18    11    39 1   
    19    12    23 1   
    20    12    40 1   
    21    12    41 1   
    22    13    14 1   
    23    13    20 1   
    24    13    42 1   
    25    13    63 1   
    26    14    15 2   
    27    14    43 1   
    28    15    16 1   
    29    15    44 1   
    30    16    19 1   
    31    16    45 1   
    32    16    46 1   
    33    17    19 1   
    34    17    22 2   
    35    17    23 1   
    36    18    20 1   
    37    18    21 2   
    38    18    23 1   
    39    19    20 1   
    40    24    25 1   
    41    24    47 1   
    42    24    48 1   
    43    24    65 1   
    44    25    26 1   
    45    25    30 1   
    46    25    49 1   
    47    26    27 1   
    48    26    50 1   
    49    26    51 1   
    50    27    28 1   
    51    27    52 1   
    52    27    53 1   
    53    28    29 1   
    54    28    31 1   
    55    28    54 1   
    56    29    30 1   
    57    29    55 1   
    58    29    56 1   
    59    30    58 1   
    60    30    59 1   
    61    31    32 1   
    62    31    33 2   
    63    32    60 1   
    64    32    61 1   
    65    33    62 1   
    66    57    65 1   
    67    63    64 2   
    68    63    65 1   
@<TRIPOS>SUBSTRUCTURE
     1 IH1         1 TEMP              0 ****  ****    0 ROOT
