@<TRIPOS>MOLECULE
IH2
   75    79     1     0     0
SMALL
No Charge or Current Charge


@<TRIPOS>ATOM
      1 N9           2.1940     0.6140     3.6150 ns         1 IH2      -0.500900
      2 C1           1.6700     0.9050     4.9530 c3         1 IH2       0.104000
      3 N11         -3.4120    -2.6970     6.9400 n2         1 IH2      -0.836100
      4 C8          -3.4790    -1.4480     6.7720 c2         1 IH2       0.618200
      5 C2           0.4930    -0.0270     5.3680 c6         1 IH2      -0.082700
      6 C7           0.0680     0.2470     6.8370 c6         1 IH2      -0.073900
      7 C6          -1.0910    -0.6810     7.2800 c6         1 IH2      -0.064400
      8 C5          -2.3200    -0.5470     6.3360 c6         1 IH2      -0.107000
      9 C4          -1.8970    -0.8290     4.8670 c6         1 IH2      -0.064400
     10 C3          -0.7360     0.0940     4.4190 c6         1 IH2      -0.073900
     11 C17          3.7730     2.2460    -1.1880 c6         1 IH2       0.147200
     12 N18          2.4990     1.5200    -1.2720 n          1 IH2      -0.263400
     13 C20          1.5830     1.5170    -2.3280 c          1 IH2       0.607000
     14 O20          1.7880     1.8950    -3.4720 o          1 IH2      -0.531000
     15 N21          0.3930     1.0520    -1.8040 n          1 IH2      -0.374400
     16 C22          0.4780     0.8270    -0.4460 c          1 IH2       0.598000
     17 O22         -0.3970     0.3720     0.2760 o          1 IH2      -0.541000
     18 N19          1.7850     1.1690    -0.0720 n          1 IH2      -0.241400
     19 C13          2.5100     0.7680     1.1570 c6         1 IH2       0.076900
     20 C14          3.9940     1.1670     1.0840 c2         1 IH2      -0.228200
     21 C15          4.5640     1.8250     0.0520 c2         1 IH2      -0.090400
     22 C12          1.8460     1.2950     2.4630 c          1 IH2       0.610100
     23 C16          6.0300     2.2090     0.0230 c3         1 IH2      -0.055900
     24 O12          1.1020     2.2680     2.4870 o          1 IH2      -0.569100
     25 C24         -1.0610    -0.5660    -3.0780 c3         1 IH2       0.004900
     26 C28         -4.8850    -1.3650    -5.0220 ca         1 IH2      -0.107500
     27 C29         -4.3620    -0.0630    -5.0430 ca         1 IH2      -0.108750
     28 C30         -3.1320     0.2150    -4.4210 ca         1 IH2      -0.102000
     29 C25         -2.4110    -0.8110    -3.7670 ca         1 IH2      -0.077300
     30 C26         -2.9460    -2.1170    -3.7600 ca         1 IH2      -0.102000
     31 C27         -4.1750    -2.3930    -4.3820 ca         1 IH2      -0.108750
     32 C34          2.2530    -1.8730    -5.5790 ca         1 IH2      -0.107500
     33 C35          2.1260    -2.3580    -4.2670 ca         1 IH2      -0.108750
     34 C36          1.0520    -1.9400    -3.4630 ca         1 IH2      -0.102000
     35 C31          0.0960    -1.0320    -3.9640 ca         1 IH2      -0.077300
     36 C32          0.2330    -0.5470    -5.2810 ca         1 IH2      -0.102000
     37 C33          1.3070    -0.9670    -6.0850 ca         1 IH2      -0.108750
     38 HN9          2.8280    -0.1700     3.5090 hn         1 IH2       0.311500
     39 H11          2.4890     0.7810     5.6740 h1         1 IH2       0.055700
     40 H12          1.3400     1.9510     5.0040 h1         1 IH2       0.055700
     41 H101        -5.4730    -1.3690     6.6870 hn         1 IH2       0.463000
     42 H102        -4.6880     0.1400     6.6880 hn         1 IH2       0.463000
     43 HN11        -4.3280    -3.0200     7.2700 hn         1 IH2       0.366400
     44 H2           0.8790    -1.0540     5.3080 hc         1 IH2       0.047700
     45 H71          0.9260     0.1040     7.5090 hc         1 IH2       0.047450
     46 H72         -0.2400     1.2970     6.9480 hc         1 IH2       0.047450
     47 H61         -0.7390    -1.7220     7.2960 hc         1 IH2       0.050200
     48 H62         -1.3840    -0.4370     8.3110 hc         1 IH2       0.050200
     49 H5          -2.6520     0.5000     6.3870 hc         1 IH2       0.055700
     50 H41         -1.5910    -1.8790     4.7600 hc         1 IH2       0.050200
     51 H42         -2.7570    -0.6870     4.1970 hc         1 IH2       0.050200
     52 H31         -1.0830     1.1370     4.3890 hc         1 IH2       0.047450
     53 H32A        -0.4510    -0.1680     3.3920 hc         1 IH2       0.047450
     54 H171         3.5700     3.3250    -1.1510 h1         1 IH2       0.074700
     55 H172         4.3590     2.0450    -2.0960 h1         1 IH2       0.074700
     56 H13          2.4560    -0.3270     1.2220 h1         1 IH2       0.062700
     57 H14          4.5980     0.8850     1.9480 ha         1 IH2       0.189000
     58 H161         6.5510     1.8960     0.9360 hc         1 IH2       0.049700
     59 H162         6.5440     1.7420    -0.8260 hc         1 IH2       0.049700
     60 H163         6.1510     3.2960    -0.0690 hc         1 IH2       0.049700
     61 H231        -1.7020     1.1870    -1.9630 h1         1 IH2       0.073200
     62 H232        -0.8110     1.5680    -3.4450 h1         1 IH2       0.073200
     63 H24         -1.0620    -1.1790    -2.1680 hc         1 IH2       0.074700
     64 H29         -4.9080     0.7340    -5.5430 ha         1 IH2       0.112250
     65 H30         -2.7490     1.2310    -4.4630 ha         1 IH2       0.113750
     66 H26         -2.4030    -2.9230    -3.2720 ha         1 IH2       0.113750
     67 H27         -4.5760    -3.4040    -4.3680 ha         1 IH2       0.112250
     68 H34          3.0850    -2.1970    -6.2010 ha         1 IH2       0.112000
     69 H35          2.8600    -3.0580    -3.8720 ha         1 IH2       0.112250
     70 H36          0.9680    -2.3200    -2.4470 ha         1 IH2       0.113750
     71 H32         -0.4900     0.1580    -5.6830 ha         1 IH2       0.113750
     72 H33          1.4050    -0.5890    -7.1000 ha         1 IH2       0.112250
     73 N10         -4.6650    -0.8310     6.9820 nv         1 IH2      -1.091200
     74 C23         -0.8480     0.8880    -2.5850 c3         1 IH2       0.130000
     75 H28         -5.8370    -1.5780    -5.5050 ha         1 IH2       0.112000
@<TRIPOS>BOND
     1     1     2 1   
     2     1    22 1   
     3     1    38 1   
     4     2     5 1   
     5     2    39 1   
     6     2    40 1   
     7     3     4 2   
     8     3    43 1   
     9     4     8 1   
    10     4    73 1   
    11     5     6 1   
    12     5    10 1   
    13     5    44 1   
    14     6     7 1   
    15     6    45 1   
    16     6    46 1   
    17     7     8 1   
    18     7    47 1   
    19     7    48 1   
    20     8     9 1   
    21     8    49 1   
    22     9    10 1   
    23     9    50 1   
    24     9    51 1   
    25    10    52 1   
    26    10    53 1   
    27    11    12 1   
    28    11    21 1   
    29    11    54 1   
    30    11    55 1   
    31    12    13 1   
    32    12    18 1   
    33    13    14 2   
    34    13    15 1   
    35    15    16 1   
    36    15    74 1   
    37    16    17 2   
    38    16    18 1   
    39    18    19 1   
    40    19    20 1   
    41    19    22 1   
    42    19    56 1   
    43    20    21 2   
    44    20    57 1   
    45    21    23 1   
    46    22    24 2   
    47    23    58 1   
    48    23    59 1   
    49    23    60 1   
    50    25    29 1   
    51    25    35 1   
    52    25    63 1   
    53    25    74 1   
    54    26    27 ar  
    55    26    31 ar  
    56    26    75 1   
    57    27    28 ar  
    58    27    64 1   
    59    28    29 ar  
    60    28    65 1   
    61    29    30 ar  
    62    30    31 ar  
    63    30    66 1   
    64    31    67 1   
    65    32    33 ar  
    66    32    37 ar  
    67    32    68 1   
    68    33    34 ar  
    69    33    69 1   
    70    34    35 ar  
    71    34    70 1   
    72    35    36 ar  
    73    36    37 ar  
    74    36    71 1   
    75    37    72 1   
    76    41    73 1   
    77    42    73 1   
    78    61    74 1   
    79    62    74 1   
@<TRIPOS>SUBSTRUCTURE
     1 IH2         1 TEMP              0 ****  ****    0 ROOT
