@<TRIPOS>MOLECULE
IH2
   75    79     1     0     0
SMALL
abcg2


@<TRIPOS>ATOM
      1 N9           2.1430    -0.1140     3.0460 ns         1 IH2      -0.500900
      2 C1           1.8730    -0.0650     4.4670 c3         1 IH2       0.104000
      3 N11         -3.6340    -2.0620     7.0610 n2         1 IH2      -0.836100
      4 C8          -3.4870    -0.8710     6.6240 c2         1 IH2       0.618200
      5 C2           0.5140    -0.6340     4.8650 c6         1 IH2      -0.082700
      6 C7           0.3750    -0.6060     6.3860 c6         1 IH2      -0.073900
      7 C6          -0.9750    -1.1410     6.8490 c6         1 IH2      -0.064400
      8 C5          -2.1230    -0.3730     6.2040 c6         1 IH2      -0.107000
      9 C4          -1.9970    -0.4210     4.6750 c6         1 IH2      -0.064400
     10 C3          -0.6460     0.1090     4.2090 c6         1 IH2      -0.073900
     11 C17          3.2860     2.6900    -1.1970 c6         1 IH2       0.147200
     12 N18          2.1550     1.8040    -1.3120 n          1 IH2      -0.263400
     13 C20          1.1660     1.9090    -2.2390 c          1 IH2       0.607000
     14 O20          1.2340     2.4340    -3.3270 o          1 IH2      -0.531000
     15 N21          0.0590     1.3110    -1.6620 n          1 IH2      -0.374400
     16 C22          0.3430     0.8950    -0.3830 c          1 IH2       0.598000
     17 O22         -0.3670     0.2570     0.3650 o          1 IH2      -0.541000
     18 N19          1.6110     1.3260    -0.1280 n          1 IH2      -0.241400
     19 C13          2.4920     0.6400     0.7840 c6         1 IH2       0.076900
     20 C14          3.8880     1.1760     0.6510 c2         1 IH2      -0.228200
     21 C15          4.2570     2.1240    -0.2040 c2         1 IH2      -0.090400
     22 C12          2.0290     0.9310     2.2210 c          1 IH2       0.610100
     23 C16          5.6380     2.6920    -0.2510 c3         1 IH2      -0.055900
     24 O12          1.6710     2.0480     2.5460 o          1 IH2      -0.569100
     25 C24         -1.2280    -0.5140    -2.7110 c3         1 IH2       0.004900
     26 C28         -4.5610    -1.6290    -5.2130 ca         1 IH2      -0.107500
     27 C29         -3.9500    -0.3980    -5.3980 ca         1 IH2      -0.108750
     28 C30         -2.8830    -0.0150    -4.5930 ca         1 IH2      -0.102000
     29 C25         -2.4120    -0.8560    -3.5880 ca         1 IH2      -0.077300
     30 C26         -3.0390    -2.0890    -3.4100 ca         1 IH2      -0.102000
     31 C27         -4.1010    -2.4760    -4.2130 ca         1 IH2      -0.108750
     32 C34          2.5820    -1.7890    -4.2690 ca         1 IH2      -0.107500
     33 C35          2.2030    -2.1210    -2.9770 ca         1 IH2      -0.108750
     34 C36          0.9600    -1.7280    -2.4950 ca         1 IH2      -0.102000
     35 C31          0.0840    -0.9960    -3.2920 ca         1 IH2      -0.077300
     36 C32          0.4740    -0.6680    -4.5870 ca         1 IH2      -0.102000
     37 C33          1.7120    -1.0630    -5.0740 ca         1 IH2      -0.108750
     38 HN9          2.3940    -1.0080     2.6560 hn         1 IH2       0.311500
     39 H11          2.6640    -0.6200     4.9760 h1         1 IH2       0.055700
     40 H12          1.9520     0.9730     4.7930 h1         1 IH2       0.055700
     41 H101        -5.4380    -0.2560     6.4880 hn         1 IH2       0.463000
     42 H102        -4.3070     0.8740     5.9330 hn         1 IH2       0.463000
     43 HN11        -4.6110    -2.2580     7.2660 hn         1 IH2       0.366400
     44 H2           0.4740    -1.6830     4.5430 hc         1 IH2       0.047700
     45 H71          1.1790    -1.1890     6.8440 hc         1 IH2       0.047450
     46 H72          0.5040     0.4250     6.7390 hc         1 IH2       0.047450
     47 H61         -1.0590    -2.2000     6.5920 hc         1 IH2       0.050200
     48 H62         -1.0470    -1.0800     7.9370 hc         1 IH2       0.050200
     49 H5          -2.0440     0.6790     6.5090 hc         1 IH2       0.055700
     50 H41         -2.1250    -1.4580     4.3430 hc         1 IH2       0.050200
     51 H42         -2.7980     0.1550     4.2060 hc         1 IH2       0.050200
     52 H31         -0.5720     1.1760     4.4480 hc         1 IH2       0.047450
     53 H32A        -0.5820     0.0290     3.1220 hc         1 IH2       0.047450
     54 H171         2.9790     3.7000    -0.9030 h1         1 IH2       0.074700
     55 H172         3.7520     2.7610    -2.1800 h1         1 IH2       0.074700
     56 H13          2.4920    -0.4420     0.5930 h1         1 IH2       0.062700
     57 H14          4.6080     0.7530     1.3410 ha         1 IH2       0.189000
     58 H161         6.2740     2.2620     0.5210 hc         1 IH2       0.049700
     59 H162         6.1020     2.5080    -1.2220 hc         1 IH2       0.049700
     60 H163         5.6170     3.7740    -0.1090 hc         1 IH2       0.049700
     61 H231        -2.0160     1.2870    -1.7880 h1         1 IH2       0.073200
     62 H232        -1.1450     1.5950    -3.2800 h1         1 IH2       0.073200
     63 H24         -1.3740    -1.0410    -1.7640 hc         1 IH2       0.074700
     64 H29         -4.3030     0.2720    -6.1710 ha         1 IH2       0.112250
     65 H30         -2.4300     0.9530    -4.7690 ha         1 IH2       0.113750
     66 H26         -2.6840    -2.7550    -2.6320 ha         1 IH2       0.113750
     67 H27         -4.5690    -3.4390    -4.0560 ha         1 IH2       0.112250
     68 H34          3.5480    -2.0950    -4.6490 ha         1 IH2       0.112000
     69 H35          2.8710    -2.6880    -2.3410 ha         1 IH2       0.112250
     70 H36          0.6680    -1.9950    -1.4860 ha         1 IH2       0.113750
     71 H32         -0.1890    -0.1000    -5.2270 ha         1 IH2       0.113750
     72 H33          1.9980    -0.8000    -6.0840 ha         1 IH2       0.112250
     73 N10         -4.4810     0.0570     6.4940 nv         1 IH2      -1.091200
     74 C23         -1.1520     0.9850    -2.3790 c3         1 IH2       0.130000
     75 H28         -5.3930    -1.9260    -5.8400 ha         1 IH2       0.112000
@<TRIPOS>BOND
     1     1     2 1   
     2     1    22 1   
     3     1    38 1   
     4     2     5 1   
     5     2    39 1   
     6     2    40 1   
     7     3     4 2   
     8     3    43 1   
     9     4     8 1   
    10     4    73 1   
    11     5     6 1   
    12     5    10 1   
    13     5    44 1   
    14     6     7 1   
    15     6    45 1   
    16     6    46 1   
    17     7     8 1   
    18     7    47 1   
    19     7    48 1   
    20     8     9 1   
    21     8    49 1   
    22     9    10 1   
    23     9    50 1   
    24     9    51 1   
    25    10    52 1   
    26    10    53 1   
    27    11    12 1   
    28    11    21 1   
    29    11    54 1   
    30    11    55 1   
    31    12    13 1   
    32    12    18 1   
    33    13    14 2   
    34    13    15 1   
    35    15    16 1   
    36    15    74 1   
    37    16    17 2   
    38    16    18 1   
    39    18    19 1   
    40    19    20 1   
    41    19    22 1   
    42    19    56 1   
    43    20    21 2   
    44    20    57 1   
    45    21    23 1   
    46    22    24 2   
    47    23    58 1   
    48    23    59 1   
    49    23    60 1   
    50    25    29 1   
    51    25    35 1   
    52    25    63 1   
    53    25    74 1   
    54    26    27 ar  
    55    26    31 ar  
    56    26    75 1   
    57    27    28 ar  
    58    27    64 1   
    59    28    29 ar  
    60    28    65 1   
    61    29    30 ar  
    62    30    31 ar  
    63    30    66 1   
    64    31    67 1   
    65    32    33 ar  
    66    32    37 ar  
    67    32    68 1   
    68    33    34 ar  
    69    33    69 1   
    70    34    35 ar  
    71    34    70 1   
    72    35    36 ar  
    73    36    37 ar  
    74    36    71 1   
    75    37    72 1   
    76    41    73 1   
    77    42    73 1   
    78    61    74 1   
    79    62    74 1   
@<TRIPOS>SUBSTRUCTURE
     1 IH2         1 TEMP              0 ****  ****    0 ROOT
