@<TRIPOS>MOLECULE
IH3
   76    81     1     0     0
SMALL
No Charge or Current Charge


@<TRIPOS>ATOM
      1 C1          -1.1270     0.0450     8.0980 cc         1 IH3      -0.206300
      2 NC          -0.5990     0.7370     9.1690 na         1 IH3      -0.334500
      3 C3          -1.6150     0.9220    10.0450 cc         1 IH3       0.619400
      4 NA          -2.7440     0.4140     9.6510 nd         1 IH3      -0.720000
      5 C2          -2.4560    -0.1470     8.4180 cd         1 IH3       0.261900
      6 NB          -1.4680     1.5530    11.2060 nv         1 IH3      -1.012900
      7 N10          0.6010    -1.1970     2.6940 ns         1 IH3      -0.498900
      8 C7          -0.3330    -1.9810     4.8450 c6         1 IH3      -0.090400
      9 C8          -0.1580    -0.7820     3.8790 c6         1 IH3       0.110700
     10 C9           0.5680     0.3780     4.6090 c6         1 IH3      -0.090400
     11 C4          -0.1850     0.8010     5.8970 c6         1 IH3      -0.068400
     12 C5          -0.3790    -0.4010     6.8580 c6         1 IH3       0.017600
     13 C6          -1.1010    -1.5650     6.1250 c6         1 IH3      -0.068400
     14 N20          0.1200     0.3060    -2.6190 n          1 IH3      -0.369400
     15 C19          1.2760     1.0510    -2.4940 c          1 IH3       0.615000
     16 O19          1.6130     2.0120    -3.1690 o          1 IH3      -0.540000
     17 N17          1.9990     0.4750    -1.4460 n          1 IH3      -0.264400
     18 N18          1.2690    -0.6750    -0.9810 n          1 IH3      -0.227400
     19 C21          0.0590    -0.7110    -1.6890 c          1 IH3       0.604000
     20 O21         -0.8740    -1.4780    -1.5030 o          1 IH3      -0.531000
     21 C16          3.4300     0.6260    -1.1410 c6         1 IH3       0.147200
     22 C14          3.8490    -0.1960     0.0840 c2         1 IH3      -0.090400
     23 C13          2.9920    -0.9990     0.7530 c2         1 IH3      -0.232200
     24 C12          1.5120    -1.1840     0.3860 c6         1 IH3       0.061900
     25 C11          0.5660    -0.5770     1.4610 c          1 IH3       0.585100
     26 O11         -0.1490     0.3960     1.2530 o          1 IH3      -0.581100
     27 C23         -0.8960    -0.2310    -4.8630 c3         1 IH3       0.008900
     28 C22         -0.9670     0.6160    -3.5670 c3         1 IH3       0.131000
     29 C24         -2.0890    -0.0420    -5.8120 ca         1 IH3      -0.076300
     30 C25         -2.8630     1.1410    -5.8390 ca         1 IH3      -0.100500
     31 C26         -3.9420     1.2670    -6.7320 ca         1 IH3      -0.111000
     32 C27         -4.2580     0.2170    -7.6090 ca         1 IH3      -0.110000
     33 C28         -3.4930    -0.9590    -7.5950 ca         1 IH3      -0.111000
     34 C29         -2.4140    -1.0860    -6.7030 ca         1 IH3      -0.100500
     35 C30          0.4280    -0.0180    -5.6010 ca         1 IH3      -0.076300
     36 C31          1.4350    -1.0040    -5.5480 ca         1 IH3      -0.100500
     37 C32          2.6590    -0.8050    -6.2100 ca         1 IH3      -0.111000
     38 C33          2.8860     0.3790    -6.9300 ca         1 IH3      -0.110000
     39 C34          1.8890     1.3660    -6.9860 ca         1 IH3      -0.111000
     40 C35          0.6650     1.1700    -6.3230 ca         1 IH3      -0.100500
     41 HNC          0.3500     1.0610     9.2920 hn         1 IH3       0.347000
     42 HC2         -3.2190    -0.6520     7.8380 h4         1 IH3       0.036100
     43 HNB1        -2.2240     1.4290    11.8700 hn         1 IH3       0.451000
     44 HNB2        -0.5340     1.6280    11.5900 hn         1 IH3       0.451000
     45 HN10         1.2230    -1.9920     2.7840 hn         1 IH3       0.309500
     46 HC71        -0.8770    -2.7910     4.3380 hc         1 IH3       0.046700
     47 HC72         0.6490    -2.3900     5.1220 hc         1 IH3       0.046700
     48 HC8         -1.1540    -0.4380     3.5570 h1         1 IH3       0.084700
     49 HC91         1.5930     0.0740     4.8650 hc         1 IH3       0.046700
     50 HC92         0.6590     1.2430     3.9390 hc         1 IH3       0.046700
     51 HC41        -1.1620     1.2260     5.6290 hc         1 IH3       0.050450
     52 HC42         0.3740     1.5990     6.4030 hc         1 IH3       0.050450
     53 HC5          0.6160    -0.7600     7.1590 hc         1 IH3       0.047700
     54 HC61        -2.1220    -1.2660     5.8480 hc         1 IH3       0.050450
     55 HC62        -1.1970    -2.4290     6.7970 hc         1 IH3       0.050450
     56 H161         3.6440     1.6890    -0.9660 h1         1 IH3       0.071700
     57 H162         4.0140     0.3090    -2.0160 h1         1 IH3       0.071700
     58 HC13         3.3390    -1.5690     1.6160 ha         1 IH3       0.183000
     59 HC12         1.2880    -2.2590     0.3810 h1         1 IH3       0.101700
     60 H151         5.5590    -0.6420     1.3530 hc         1 IH3       0.049367
     61 H152         5.9680    -0.3410    -0.3410 hc         1 IH3       0.049367
     62 H153         5.5330     1.0100     0.7200 hc         1 IH3       0.049367
     63 HC23        -0.9330    -1.2740    -4.5240 hc         1 IH3       0.075700
     64 H221        -1.9310     0.4420    -3.0730 h1         1 IH3       0.071700
     65 H222        -0.9130     1.6820    -3.8210 h1         1 IH3       0.071700
     66 HC25        -2.6380     1.9750    -5.1800 ha         1 IH3       0.115250
     67 HC26        -4.5310     2.1810    -6.7450 ha         1 IH3       0.112250
     68 HC27        -5.0930     0.3170    -8.3000 ha         1 IH3       0.111000
     69 HC28        -3.7330    -1.7720    -8.2760 ha         1 IH3       0.112250
     70 HC29        -1.8250    -2.0010    -6.7070 ha         1 IH3       0.115250
     71 HC31         1.2740    -1.9230    -4.9900 ha         1 IH3       0.115250
     72 HC32         3.4320    -1.5700    -6.1640 ha         1 IH3       0.112250
     73 HC33         3.8340     0.5320    -7.4420 ha         1 IH3       0.111000
     74 HC34         2.0640     2.2850    -7.5410 ha         1 IH3       0.112250
     75 HC35        -0.0970     1.9440    -6.3700 ha         1 IH3       0.115250
     76 C15          5.3040    -0.0350     0.4760 c3         1 IH3      -0.057900
@<TRIPOS>BOND
     1     1     2 1   
     2     1     5 2   
     3     1    12 1   
     4     2     3 1   
     5     2    41 1   
     6     3     4 2   
     7     3     6 1   
     8     4     5 1   
     9     5    42 1   
    10     6    43 1   
    11     6    44 1   
    12     7     9 1   
    13     7    25 1   
    14     7    45 1   
    15     8     9 1   
    16     8    13 1   
    17     8    46 1   
    18     8    47 1   
    19     9    10 1   
    20     9    48 1   
    21    10    11 1   
    22    10    49 1   
    23    10    50 1   
    24    11    12 1   
    25    11    51 1   
    26    11    52 1   
    27    12    13 1   
    28    12    53 1   
    29    13    54 1   
    30    13    55 1   
    31    14    15 1   
    32    14    19 1   
    33    14    28 1   
    34    15    16 2   
    35    15    17 1   
    36    17    18 1   
    37    17    21 1   
    38    18    19 1   
    39    18    24 1   
    40    19    20 2   
    41    21    22 1   
    42    21    56 1   
    43    21    57 1   
    44    22    23 2   
    45    22    76 1   
    46    23    24 1   
    47    23    58 1   
    48    24    25 1   
    49    24    59 1   
    50    25    26 2   
    51    27    28 1   
    52    27    29 1   
    53    27    35 1   
    54    27    63 1   
    55    28    64 1   
    56    28    65 1   
    57    29    30 ar  
    58    29    34 ar  
    59    30    31 ar  
    60    30    66 1   
    61    31    32 ar  
    62    31    67 1   
    63    32    33 ar  
    64    32    68 1   
    65    33    34 ar  
    66    33    69 1   
    67    34    70 1   
    68    35    36 ar  
    69    35    40 ar  
    70    36    37 ar  
    71    36    71 1   
    72    37    38 ar  
    73    37    72 1   
    74    38    39 ar  
    75    38    73 1   
    76    39    40 ar  
    77    39    74 1   
    78    40    75 1   
    79    60    76 1   
    80    61    76 1   
    81    62    76 1   
@<TRIPOS>SUBSTRUCTURE
     1 IH3         1 TEMP              0 ****  ****    0 ROOT
