@<TRIPOS>MOLECULE
IH3
   76    81     1     0     0
SMALL
abcg2


@<TRIPOS>ATOM
      1 C1          -1.2380    -0.3610     7.7180 cc         1 IH3      -0.206300
      2 NC          -0.7850     0.4420     8.7490 na         1 IH3      -0.334500
      3 C3          -1.7530     0.4930     9.6920 cc         1 IH3       0.619400
      4 NA          -2.7980    -0.2130     9.3460 nd         1 IH3      -0.720000
      5 C2          -2.4820    -0.7440     8.1140 cd         1 IH3       0.261900
      6 NB          -1.6410     1.2650    10.8250 nv         1 IH3      -1.012900
      7 N10          0.8370    -1.0040     2.4120 ns         1 IH3      -0.498900
      8 C7          -0.2730    -1.9590     4.3540 c6         1 IH3      -0.090400
      9 C8           0.0270    -0.6850     3.5740 c6         1 IH3       0.110700
     10 C9           0.7060     0.3530     4.4650 c6         1 IH3      -0.090400
     11 C4          -0.1310     0.6440     5.7050 c6         1 IH3      -0.068400
     12 C5          -0.4240    -0.6360     6.5000 c6         1 IH3       0.017600
     13 C6          -1.1040    -1.6650     5.5970 c6         1 IH3      -0.068400
     14 N20          0.0430     0.6200    -2.4270 n          1 IH3      -0.369400
     15 C19          1.0490     1.5520    -2.2560 c          1 IH3       0.615000
     16 O19          1.1670     2.6210    -2.8140 o          1 IH3      -0.540000
     17 N17          1.8880     1.0150    -1.3310 n          1 IH3      -0.264400
     18 N18          1.5090    -0.3020    -1.0910 n          1 IH3      -0.227400
     19 C21          0.2770    -0.4950    -1.6590 c          1 IH3       0.604000
     20 O21         -0.4410    -1.4580    -1.5110 o          1 IH3      -0.531000
     21 C16          3.2990     1.2990    -1.2410 c6         1 IH3       0.147200
     22 C14          3.8820     0.5960    -0.0520 c2         1 IH3      -0.090400
     23 C13          3.2030    -0.3410     0.6050 c2         1 IH3      -0.232200
     24 C12          1.8280    -0.8060     0.2180 c6         1 IH3       0.061900
     25 C11          0.7900    -0.3390     1.2550 c          1 IH3       0.585100
     26 O11          0.0180     0.5700     1.0020 o          1 IH3      -0.581100
     27 C23         -1.0850    -0.2800    -4.4430 c3         1 IH3       0.008900
     28 C22         -1.0760     0.7760    -3.3290 c3         1 IH3       0.131000
     29 C24         -2.1450     0.0400    -5.4780 ca         1 IH3      -0.076300
     30 C25         -2.2160     1.2810    -6.1090 ca         1 IH3      -0.100500
     31 C26         -3.1820     1.5340    -7.0730 ca         1 IH3      -0.111000
     32 C27         -4.0960     0.5480    -7.4240 ca         1 IH3      -0.110000
     33 C28         -4.0360    -0.6910    -6.8020 ca         1 IH3      -0.111000
     34 C29         -3.0690    -0.9380    -5.8370 ca         1 IH3      -0.100500
     35 C30          0.2770    -0.4800    -5.0740 ca         1 IH3      -0.076300
     36 C31          0.7730    -1.7720    -5.2270 ca         1 IH3      -0.100500
     37 C32          2.0120    -1.9970    -5.8130 ca         1 IH3      -0.111000
     38 C33          2.7790    -0.9270    -6.2510 ca         1 IH3      -0.110000
     39 C34          2.2960     0.3670    -6.0980 ca         1 IH3      -0.111000
     40 C35          1.0560     0.5870    -5.5170 ca         1 IH3      -0.100500
     41 HNC          0.1080     0.9070     8.7900 hn         1 IH3       0.347000
     42 HC2         -3.1750    -1.3810     7.5850 h4         1 IH3       0.036100
     43 HNB1        -2.2930     0.9880    11.5430 hn         1 IH3       0.451000
     44 HNB2        -0.7080     1.3290    11.2030 hn         1 IH3       0.451000
     45 HN10         1.5110    -1.7490     2.5130 hn         1 IH3       0.309500
     46 HC71        -0.8010    -2.6680     3.7120 hc         1 IH3       0.046700
     47 HC72         0.6690    -2.4370     4.6490 hc         1 IH3       0.046700
     48 HC8         -0.9180    -0.2710     3.2110 h1         1 IH3       0.084700
     49 HC91         1.6920    -0.0230     4.7620 hc         1 IH3       0.046700
     50 HC92         0.8730     1.2720     3.9000 hc         1 IH3       0.046700
     51 HC41        -1.0800     1.1060     5.4130 hc         1 IH3       0.050450
     52 HC42         0.3900     1.3730     6.3310 hc         1 IH3       0.050450
     53 HC5          0.5420    -1.0570     6.8140 hc         1 IH3       0.047700
     54 HC61        -2.0870    -1.2900     5.2960 hc         1 IH3       0.050450
     55 HC62        -1.2780    -2.5920     6.1470 hc         1 IH3       0.050450
     56 H161         3.4190     2.3770    -1.1340 h1         1 IH3       0.071700
     57 H162         3.8310     0.9970    -2.1510 h1         1 IH3       0.071700
     58 HC13         3.6450    -0.8310     1.4630 ha         1 IH3       0.183000
     59 HC12         1.8240    -1.8980     0.1640 h1         1 IH3       0.101700
     60 H151         5.6560     0.4180     1.1470 hc         1 IH3       0.049367
     61 H152         5.9490     0.8910    -0.5280 hc         1 IH3       0.049367
     62 H153         5.2990     2.0620     0.6050 hc         1 IH3       0.049367
     63 HC23        -1.3700    -1.2300    -3.9880 hc         1 IH3       0.075700
     64 H221        -2.0090     0.7230    -2.7670 h1         1 IH3       0.071700
     65 H222        -1.0070     1.7840    -3.7350 h1         1 IH3       0.071700
     66 HC25        -1.5150     2.0690    -5.8610 ha         1 IH3       0.115250
     67 HC26        -3.2200     2.5040    -7.5510 ha         1 IH3       0.112250
     68 HC27        -4.8500     0.7450    -8.1750 ha         1 IH3       0.111000
     69 HC28        -4.7430    -1.4670    -7.0650 ha         1 IH3       0.112250
     70 HC29        -3.0310    -1.9080    -5.3550 ha         1 IH3       0.115250
     71 HC31         0.1850    -2.6140    -4.8810 ha         1 IH3       0.115250
     72 HC32         2.3780    -3.0100    -5.9230 ha         1 IH3       0.112250
     73 HC33         3.7460    -1.0990    -6.7050 ha         1 IH3       0.111000
     74 HC34         2.8880     1.2100    -6.4310 ha         1 IH3       0.112250
     75 HC35         0.7100     1.6060    -5.4010 ha         1 IH3       0.115250
     76 C15          5.2700     1.0080     0.3190 c3         1 IH3      -0.057900
@<TRIPOS>BOND
     1     1     2 1   
     2     1     5 2   
     3     1    12 1   
     4     2     3 1   
     5     2    41 1   
     6     3     4 2   
     7     3     6 1   
     8     4     5 1   
     9     5    42 1   
    10     6    43 1   
    11     6    44 1   
    12     7     9 1   
    13     7    25 1   
    14     7    45 1   
    15     8     9 1   
    16     8    13 1   
    17     8    46 1   
    18     8    47 1   
    19     9    10 1   
    20     9    48 1   
    21    10    11 1   
    22    10    49 1   
    23    10    50 1   
    24    11    12 1   
    25    11    51 1   
    26    11    52 1   
    27    12    13 1   
    28    12    53 1   
    29    13    54 1   
    30    13    55 1   
    31    14    15 1   
    32    14    19 1   
    33    14    28 1   
    34    15    16 2   
    35    15    17 1   
    36    17    18 1   
    37    17    21 1   
    38    18    19 1   
    39    18    24 1   
    40    19    20 2   
    41    21    22 1   
    42    21    56 1   
    43    21    57 1   
    44    22    23 2   
    45    22    76 1   
    46    23    24 1   
    47    23    58 1   
    48    24    25 1   
    49    24    59 1   
    50    25    26 2   
    51    27    28 1   
    52    27    29 1   
    53    27    35 1   
    54    27    63 1   
    55    28    64 1   
    56    28    65 1   
    57    29    30 ar  
    58    29    34 ar  
    59    30    31 ar  
    60    30    66 1   
    61    31    32 ar  
    62    31    67 1   
    63    32    33 ar  
    64    32    68 1   
    65    33    34 ar  
    66    33    69 1   
    67    34    70 1   
    68    35    36 ar  
    69    35    40 ar  
    70    36    37 ar  
    71    36    71 1   
    72    37    38 ar  
    73    37    72 1   
    74    38    39 ar  
    75    38    73 1   
    76    39    40 ar  
    77    39    74 1   
    78    40    75 1   
    79    60    76 1   
    80    61    76 1   
    81    62    76 1   
@<TRIPOS>SUBSTRUCTURE
     1 IH3         1 TEMP              0 ****  ****    0 ROOT
