@<TRIPOS>MOLECULE
IH5
   38    39     1     0     0
SMALL
bcc


@<TRIPOS>ATOM
      1 O3           6.9950     0.2360    -0.2740 o          1 IH5      -0.820300
      2 C15          5.8370    -0.0670     0.0660 c          1 IH5       0.938600
      3 O4           5.4450    -0.4070     1.1950 o          1 IH5      -0.820300
      4 C13          4.7840    -0.0460    -1.0760 c3         1 IH5      -0.200100
      5 C01          3.3720     0.0360    -0.5950 ca         1 IH5       0.031700
      6 C11          2.6890     1.2470    -0.6070 ca         1 IH5      -0.116000
      7 C09          1.3890     1.3230    -0.1320 ca         1 IH5       0.026900
      8 C07          0.7400     0.2050     0.3730 ca         1 IH5       0.051100
      9 O2          -0.5110     0.2930     0.8820 os         1 IH5      -0.227200
     10 C2          -1.5830     0.1200     0.0380 ca         1 IH5       0.118100
     11 C12         -1.4600    -0.1660    -1.3110 ca         1 IH5      -0.152000
     12 C10         -2.6100    -0.3250    -2.0700 ca         1 IH5      -0.134000
     13 C8          -3.8710    -0.2090    -1.4990 ca         1 IH5       0.097100
     14 O1          -4.9290    -0.4070    -2.3230 oh         1 IH5      -0.511100
     15 C6          -4.0000     0.0910    -0.1350 ca         1 IH5      -0.137300
     16 C4          -2.8380     0.2480     0.6120 ca         1 IH5      -0.118000
     17 C14         -5.3650     0.1750     0.5150 c3         1 IH5      -0.008400
     18 C16         -5.8530    -1.2250     0.9000 c3         1 IH5      -0.087100
     19 C18         -5.4130     1.1100     1.7190 c3         1 IH5      -0.087100
     20 C05          1.4270    -1.0050     0.3660 ca         1 IH5       0.026900
     21 C03          2.7260    -1.0930    -0.0990 ca         1 IH5      -0.116000
     22 CL5          0.6240    -2.4090     0.9700 cl         1 IH5      -0.119900
     23 CL6          0.5440     2.8270    -0.1560 cl         1 IH5      -0.119900
     24 H131         5.0000     0.7780    -1.7590 hc         1 IH5       0.038700
     25 H132         4.9200    -0.9640    -1.6570 hc         1 IH5       0.038700
     26 H11          3.1680     2.1380    -0.9920 ha         1 IH5       0.153500
     27 H12         -0.4950    -0.2690    -1.7900 ha         1 IH5       0.154000
     28 H10         -2.5240    -0.5460    -3.1260 ha         1 IH5       0.140000
     29 HO1         -5.7610    -0.2300    -1.8740 ho         1 IH5       0.418000
     30 H4          -2.9040     0.4740     1.6690 ha         1 IH5       0.145000
     31 H14         -6.0720     0.5950    -0.2110 hc         1 IH5       0.030700
     32 H161        -5.2040    -1.6540     1.6650 hc         1 IH5       0.035367
     33 H162        -6.8670    -1.1850     1.3020 hc         1 IH5       0.035367
     34 H163        -5.8580    -1.9070     0.0490 hc         1 IH5       0.035367
     35 H181        -4.8390     0.7220     2.5620 hc         1 IH5       0.035367
     36 H182        -5.0310     2.1010     1.4760 hc         1 IH5       0.035367
     37 H183        -6.4440     1.2220     2.0580 hc         1 IH5       0.035367
     38 H03          3.2320    -2.0490    -0.0930 ha         1 IH5       0.153500
@<TRIPOS>BOND
     1     1     2 1   
     2     2     3 1   
     3     2     4 1   
     4     4     5 1   
     5     4    24 1   
     6     4    25 1   
     7     5     6 ar  
     8     5    21 ar  
     9     6     7 ar  
    10     6    26 1   
    11     7     8 ar  
    12     7    23 1   
    13     8     9 1   
    14     8    20 ar  
    15     9    10 1   
    16    10    11 ar  
    17    10    16 ar  
    18    11    12 ar  
    19    11    27 1   
    20    12    13 ar  
    21    12    28 1   
    22    13    14 1   
    23    13    15 ar  
    24    14    29 1   
    25    15    16 ar  
    26    15    17 1   
    27    16    30 1   
    28    17    18 1   
    29    17    19 1   
    30    17    31 1   
    31    18    32 1   
    32    18    33 1   
    33    18    34 1   
    34    19    35 1   
    35    19    36 1   
    36    19    37 1   
    37    20    21 ar  
    38    20    22 1   
    39    21    38 1   
@<TRIPOS>SUBSTRUCTURE
     1 IH5         1 TEMP              0 ****  ****    0 ROOT
