@<TRIPOS>MOLECULE
IH5
   38    39     1     0     0
SMALL
No Charge or Current Charge


@<TRIPOS>ATOM
      1 O3           6.2330     0.7460     0.5570 o          1 IH5      -0.715000
      2 C15          5.8000    -0.3100     0.1220 c          1 IH5       0.728000
      3 O4           5.9740    -1.3900     0.6660 o          1 IH5      -0.715000
      4 C13          4.8500    -0.2560    -1.0810 c3         1 IH5      -0.200100
      5 C01          3.4230    -0.0580    -0.5840 ca         1 IH5       0.031700
      6 C11          2.9030     1.2400    -0.4120 ca         1 IH5      -0.098000
      7 C09          1.5880     1.4260     0.0450 ca         1 IH5       0.118500
      8 C07          0.7750     0.3110     0.3310 ca         1 IH5       0.051100
      9 O2          -0.5160     0.5000     0.7770 os         1 IH5      -0.227200
     10 C2          -1.6180     0.3010    -0.0280 ca         1 IH5       0.118100
     11 C12         -1.5060     0.2040    -1.4280 ca         1 IH5      -0.134000
     12 C10         -2.6580     0.0030    -2.2050 ca         1 IH5      -0.116000
     13 C8          -3.9210    -0.0990    -1.5980 ca         1 IH5       0.097100
     14 O1          -5.0080    -0.2950    -2.4000 oh         1 IH5      -0.550100
     15 C6          -4.0490     0.0030    -0.1890 ca         1 IH5      -0.137300
     16 C4          -2.8800     0.2050     0.5800 ca         1 IH5      -0.100000
     17 C14         -5.4070    -0.1000     0.5290 c3         1 IH5      -0.008400
     18 C16         -5.4520    -1.3190     1.4770 c3         1 IH5      -0.087100
     19 C18         -5.7530     1.2100     1.2710 c3         1 IH5      -0.087100
     20 C05          1.2940    -0.9900     0.1660 ca         1 IH5       0.118500
     21 C03          2.6100    -1.1700    -0.2900 ca         1 IH5      -0.098000
     22 Cl5          0.3160    -2.4130     0.5340 cl         1 IH5      -0.211500
     23 Cl6          0.9700     3.0660     0.2420 cl         1 IH5      -0.211500
     24 H131         5.0950     0.6020    -1.7170 hc         1 IH5       0.038700
     25 H132         4.8760    -1.2090    -1.6240 hc         1 IH5       0.038700
     26 H11          3.5210     2.1070    -0.6310 ha         1 IH5       0.135500
     27 H12         -0.5400     0.2860    -1.9200 ha         1 IH5       0.136000
     28 H10         -2.5720    -0.0730    -3.2860 ha         1 IH5       0.122000
     29 HO1         -5.8030    -0.3430    -1.8300 ho         1 IH5       0.457000
     30 H4          -2.9430     0.2870     1.6610 ha         1 IH5       0.127000
     31 H14         -6.2130    -0.2550    -0.1980 hc         1 IH5       0.030700
     32 H161        -4.7280    -1.2160     2.2940 hc         1 IH5       0.035367
     33 H162        -6.4500    -1.4280     1.9190 hc         1 IH5       0.035367
     34 H163        -5.2220    -2.2410     0.9290 hc         1 IH5       0.035367
     35 H181        -5.0410     1.4100     2.0810 hc         1 IH5       0.035367
     36 H182        -5.7330     2.0600     0.5790 hc         1 IH5       0.035367
     37 H183        -6.7570     1.1520     1.7090 hc         1 IH5       0.035367
     38 H03          3.0010    -2.1760    -0.4120 ha         1 IH5       0.135500
@<TRIPOS>BOND
     1     1     2 1   
     2     2     3 1   
     3     2     4 1   
     4     4     5 1   
     5     4    24 1   
     6     4    25 1   
     7     5     6 ar  
     8     5    21 ar  
     9     6     7 ar  
    10     6    26 1   
    11     7     8 ar  
    12     7    23 1   
    13     8     9 1   
    14     8    20 ar  
    15     9    10 1   
    16    10    11 ar  
    17    10    16 ar  
    18    11    12 ar  
    19    11    27 1   
    20    12    13 ar  
    21    12    28 1   
    22    13    14 1   
    23    13    15 ar  
    24    14    29 1   
    25    15    16 ar  
    26    15    17 1   
    27    16    30 1   
    28    17    18 1   
    29    17    19 1   
    30    17    31 1   
    31    18    32 1   
    32    18    33 1   
    33    18    34 1   
    34    19    35 1   
    35    19    36 1   
    36    19    37 1   
    37    20    21 ar  
    38    20    22 1   
    39    21    38 1   
@<TRIPOS>SUBSTRUCTURE
     1 IH5         1 TEMP              0 ****  ****    0 ROOT
