@<TRIPOS>MOLECULE
IH6
   48    49     1     0     0
SMALL
No Charge or Current Charge


@<TRIPOS>ATOM
      1 C1           9.2330    -1.0510     1.9850 c3         1 IH6      -0.014000
      2 C2           7.9540    -0.3740     1.7480 c1         1 IH6      -0.078100
      3 C3           6.8910     0.1630     1.5360 c1         1 IH6      -0.171100
      4 C4           5.6100     0.8400     1.3010 c3         1 IH6       0.259700
      5 O1           4.8080     0.0100     0.4440 os         1 IH6      -0.331100
      6 C5           3.5420     0.3790     0.0420 ca         1 IH6       0.208100
      7 C6           2.8410    -0.5020    -0.7940 ca         1 IH6      -0.203500
      8 C7           1.5470    -0.1880    -1.2390 ca         1 IH6       0.030500
      9 C8           0.9440     1.0200    -0.8400 ca         1 IH6      -0.354500
     10 C9           1.6450     1.9130    -0.0050 ca         1 IH6       0.030500
     11 C10          2.9390     1.5920     0.4360 ca         1 IH6      -0.203500
     12 S1          -0.7180     1.4250    -1.4040 sy         1 IH6       1.171600
     13 O2          -0.8890     0.7950    -2.7180 o          1 IH6      -0.536500
     14 O3          -0.9790     2.8520    -1.1920 o          1 IH6      -0.536500
     15 N1          -1.7420     0.5820    -0.3170 n3         1 IH6      -0.734500
     16 C11         -1.1100    -0.0490     0.8820 c6         1 IH6       0.202800
     17 C12         -2.1100    -0.3190     2.0330 c6         1 IH6       0.054600
     18 S2          -3.5870    -1.3350     1.5650 ss         1 IH6      -0.395000
     19 C13         -4.0850    -0.4220     0.0320 c6         1 IH6       0.110000
     20 C14         -2.8580    -0.2360    -0.9430 c6         1 IH6       0.141500
     21 C15         -2.4300    -1.5650    -1.6850 c          1 IH6       0.580100
     22 O4          -1.3670    -2.1400    -1.4700 o          1 IH6      -0.547100
     23 N2          -3.2340    -1.9580    -2.7580 ns         1 IH6      -0.397400
     24 O5          -3.0500    -3.2480    -3.3920 oh         1 IH6      -0.411100
     25 C16         -5.2740    -1.2190    -0.5860 c3         1 IH6      -0.086600
     26 C17         -4.6690     0.9660     0.4480 c3         1 IH6      -0.086600
     27 H11          9.8880    -0.4240     2.6000 hc         1 IH6       0.058033
     28 H12          9.0700    -2.0020     2.5050 hc         1 IH6       0.058033
     29 H13          9.7380    -1.2560     1.0340 hc         1 IH6       0.058033
     30 H41          5.1110     1.0050     2.2640 h1         1 IH6       0.057200
     31 H42          5.8020     1.8140     0.8330 h1         1 IH6       0.057200
     32 H6           3.3050    -1.4360    -1.1000 ha         1 IH6       0.130500
     33 H7           1.0190    -0.8860    -1.8880 ha         1 IH6       0.132500
     34 H9           1.1910     2.8520     0.3090 ha         1 IH6       0.132500
     35 H10          3.4550     2.2970     1.0820 ha         1 IH6       0.130500
     36 H111        -0.6000    -0.9860     0.6190 h1         1 IH6       0.075700
     37 H112        -0.3430     0.6140     1.3070 h1         1 IH6       0.075700
     38 H121        -1.5910    -0.8310     2.8550 h1         1 IH6       0.078200
     39 H122        -2.4720     0.6410     2.4250 h1         1 IH6       0.078200
     40 H14         -3.2680     0.3690    -1.7660 h1         1 IH6       0.087700
     41 HN2         -4.1390    -1.5140    -2.9070 hn         1 IH6       0.343500
     42 HO5         -2.9780    -3.0300    -4.3510 ho         1 IH6       0.442000
     43 H161        -6.1320    -1.2430     0.0980 hc         1 IH6       0.051033
     44 H162        -5.6220    -0.7670    -1.5230 hc         1 IH6       0.051033
     45 H163        -5.0090    -2.2640    -0.7820 hc         1 IH6       0.051033
     46 H171        -3.9160     1.6120     0.9130 hc         1 IH6       0.051033
     47 H172        -5.0630     1.5070    -0.4210 hc         1 IH6       0.051033
     48 H173        -5.4890     0.8570     1.1680 hc         1 IH6       0.051033
@<TRIPOS>BOND
     1     1     2 1   
     2     1    27 1   
     3     1    28 1   
     4     1    29 1   
     5     2     3 3   
     6     3     4 1   
     7     4     5 1   
     8     4    30 1   
     9     4    31 1   
    10     5     6 1   
    11     6     7 ar  
    12     6    11 ar  
    13     7     8 ar  
    14     7    32 1   
    15     8     9 ar  
    16     8    33 1   
    17     9    10 ar  
    18     9    12 1   
    19    10    11 ar  
    20    10    34 1   
    21    11    35 1   
    22    12    13 2   
    23    12    14 2   
    24    12    15 1   
    25    15    16 1   
    26    15    20 1   
    27    16    17 1   
    28    16    36 1   
    29    16    37 1   
    30    17    18 1   
    31    17    38 1   
    32    17    39 1   
    33    18    19 1   
    34    19    20 1   
    35    19    25 1   
    36    19    26 1   
    37    20    21 1   
    38    20    40 1   
    39    21    22 2   
    40    21    23 1   
    41    23    24 1   
    42    23    41 1   
    43    24    42 1   
    44    25    43 1   
    45    25    44 1   
    46    25    45 1   
    47    26    46 1   
    48    26    47 1   
    49    26    48 1   
@<TRIPOS>SUBSTRUCTURE
     1 IH6         1 TEMP              0 ****  ****    0 ROOT
