@<TRIPOS>MOLECULE
IH6
   48    49     1     0     0
SMALL
abcg2


@<TRIPOS>ATOM
      1 C1           8.5310    -2.2590     0.3800 c3         1 IH6      -0.014000
      2 C2           7.2770    -1.5430     0.5470 c1         1 IH6      -0.078100
      3 C3           6.2400    -0.9500     0.6790 c1         1 IH6      -0.171100
      4 C4           4.9980    -0.2180     0.8640 c3         1 IH6       0.259700
      5 O1           4.2030    -0.4010    -0.3020 os         1 IH6      -0.331100
      6 C5           3.0210     0.2220    -0.3720 ca         1 IH6       0.208100
      7 C6           2.3010     0.0370    -1.5580 ca         1 IH6      -0.203500
      8 C7           1.0770     0.6520    -1.7320 ca         1 IH6       0.030500
      9 C8           0.5550     1.4480    -0.7160 ca         1 IH6      -0.354500
     10 C9           1.2650     1.6390     0.4600 ca         1 IH6       0.030500
     11 C10          2.4940     1.0270     0.6380 ca         1 IH6      -0.203500
     12 S1          -1.0470     2.1630    -0.8880 sy         1 IH6       1.171600
     13 O2          -1.4550     2.0090    -2.2750 o          1 IH6      -0.536500
     14 O3          -1.0280     3.4880    -0.2930 o          1 IH6      -0.536500
     15 N1          -2.0830     1.2400     0.0260 n3         1 IH6      -0.734500
     16 C11         -2.1090     1.4810     1.4760 c6         1 IH6       0.202800
     17 C12         -3.4700     1.1580     2.0560 c6         1 IH6       0.054600
     18 S2          -3.9470    -0.5590     1.7640 ss         1 IH6      -0.395000
     19 C13         -3.7690    -0.5850    -0.0510 c6         1 IH6       0.110000
     20 C14         -2.3640    -0.1060    -0.4760 c6         1 IH6       0.141500
     21 C15         -1.2430    -1.0870    -0.1210 c          1 IH6       0.580100
     22 O4          -0.7750    -1.2150     0.9920 o          1 IH6      -0.547100
     23 N2          -0.7970    -1.7680    -1.1920 ns         1 IH6      -0.397400
     24 O5           0.1980    -2.6820    -1.0620 oh         1 IH6      -0.411100
     25 C16         -3.9870    -2.0320    -0.4810 c3         1 IH6      -0.086600
     26 C17         -4.8170     0.3060    -0.7130 c3         1 IH6      -0.086600
     27 H11          9.3130    -1.8190     0.9980 hc         1 IH6       0.058033
     28 H12          8.4290    -3.3070     0.6630 hc         1 IH6       0.058033
     29 H13          8.8640    -2.2210    -0.6570 hc         1 IH6       0.058033
     30 H41          4.4710    -0.5840     1.7510 h1         1 IH6       0.057200
     31 H42          5.2090     0.8450     1.0220 h1         1 IH6       0.057200
     32 H6           2.7270    -0.5620    -2.3530 ha         1 IH6       0.130500
     33 H7           0.5460     0.5160    -2.6630 ha         1 IH6       0.132500
     34 H9           0.8800     2.2690     1.2510 ha         1 IH6       0.132500
     35 H10          3.0230     1.1960     1.5650 ha         1 IH6       0.130500
     36 H111        -1.3380     0.9100     1.9910 h1         1 IH6       0.075700
     37 H112        -1.9210     2.5390     1.6450 h1         1 IH6       0.075700
     38 H121        -3.4310     1.2910     3.1370 h1         1 IH6       0.078200
     39 H122        -4.2300     1.8350     1.6670 h1         1 IH6       0.078200
     40 H14         -2.4260    -0.0270    -1.5640 h1         1 IH6       0.087700
     41 HN2         -1.1740    -1.6700    -2.1230 hn         1 IH6       0.343500
     42 HO5          1.0280    -2.1860    -1.1290 ho         1 IH6       0.442000
     43 H161        -5.0110    -2.3360    -0.2600 hc         1 IH6       0.051033
     44 H162        -3.8410    -2.1360    -1.5580 hc         1 IH6       0.051033
     45 H163        -3.3210    -2.7300     0.0260 hc         1 IH6       0.051033
     46 H171        -4.6890     1.3580    -0.4660 hc         1 IH6       0.051033
     47 H172        -4.7510     0.2150    -1.8000 hc         1 IH6       0.051033
     48 H173        -5.8180     0.0020    -0.4070 hc         1 IH6       0.051033
@<TRIPOS>BOND
     1     1     2 1   
     2     1    27 1   
     3     1    28 1   
     4     1    29 1   
     5     2     3 3   
     6     3     4 1   
     7     4     5 1   
     8     4    30 1   
     9     4    31 1   
    10     5     6 1   
    11     6     7 ar  
    12     6    11 ar  
    13     7     8 ar  
    14     7    32 1   
    15     8     9 ar  
    16     8    33 1   
    17     9    10 ar  
    18     9    12 1   
    19    10    11 ar  
    20    10    34 1   
    21    11    35 1   
    22    12    13 2   
    23    12    14 2   
    24    12    15 1   
    25    15    16 1   
    26    15    20 1   
    27    16    17 1   
    28    16    36 1   
    29    16    37 1   
    30    17    18 1   
    31    17    38 1   
    32    17    39 1   
    33    18    19 1   
    34    19    20 1   
    35    19    25 1   
    36    19    26 1   
    37    20    21 1   
    38    20    40 1   
    39    21    22 2   
    40    21    23 1   
    41    23    24 1   
    42    23    41 1   
    43    24    42 1   
    44    25    43 1   
    45    25    44 1   
    46    25    45 1   
    47    26    46 1   
    48    26    47 1   
    49    26    48 1   
@<TRIPOS>SUBSTRUCTURE
     1 IH6         1 TEMP              0 ****  ****    0 ROOT
