@<TRIPOS>MOLECULE
IH7
   66    70     1     0     0
SMALL
bcc


@<TRIPOS>ATOM
      1 CLBL       238.8440     3.0590   140.7780 cl         1 IH7      -0.072400
      2 CBG        239.1940     4.4680   139.8440 ca         1 IH7      -0.074900
      3 CBH        238.2520     5.4850   139.8390 ca         1 IH7       0.415700
      4 NBI        238.4230     6.5990   139.1490 nb         1 IH7      -0.645000
      5 CBJ        239.5240     6.7320   138.4310 ca         1 IH7       0.415700
      6 CBK        240.5100     5.7550   138.3820 ca         1 IH7      -0.074900
      7 CLBM       241.8680     6.0630   137.3650 cl         1 IH7      -0.072400
      8 CBE        240.3790     4.5810   139.1200 ca         1 IH7      -0.074300
      9 CBD        241.4020     3.4640   139.1250 c3         1 IH7       0.201400
     10 CBF        241.2570     2.5880   137.8950 c3         1 IH7      -0.089100
     11 OAU        242.7380     3.9530   139.1490 os         1 IH7      -0.295900
     12 CAQ        243.1950     4.6300   140.1950 ca         1 IH7       0.240100
     13 CAP        242.4820     4.9040   141.3490 ca         1 IH7      -0.372300
     14 CAR        244.5180     5.0920   140.0900 ca         1 IH7      -0.220300
     15 CBO        245.2770     4.8440   138.9180 cg         1 IH7       0.262800
     16 NBP        245.9040     4.6470   137.9710 n1         1 IH7      -0.374800
     17 CAS        245.0560     5.7870   141.1670 ca         1 IH7       0.509200
     18 NAT        244.3810     6.0620   142.2630 nb         1 IH7      -0.758000
     19 CAO        243.1170     5.6450   142.3480 ca         1 IH7       0.604200
     20 NAM        242.5070     6.0140   143.5260 ns         1 IH7      -0.548400
     21 CAK        241.1710     6.0000   143.8400 c          1 IH7       0.735300
     22 OAL        240.3030     5.5690   143.1030 o          1 IH7      -0.590100
     23 CAI        240.8730     6.5700   145.1530 cc         1 IH7      -0.350000
     24 CAH        239.6110     6.7140   145.6760 cd         1 IH7      -0.003100
     25 CAE        241.7600     7.0830   146.1500 ca         1 IH7       0.437100
     26 NAF        243.0760     7.1810   146.1550 nb         1 IH7      -0.637000
     27 CAA        243.6730     7.7000   147.2230 ca         1 IH7       0.337800
     28 CAJ        245.1480     7.7370   147.0630 c          1 IH7       0.482400
     29 OBN        245.9500     8.1450   147.8610 o          1 IH7      -0.480100
     30 CAB        242.9400     8.1440   148.3400 ca         1 IH7      -0.091200
     31 BRAV       243.7650     8.8740   149.8620 br         1 IH7      -0.040100
     32 CAC        241.5570     8.0570   148.3560 ca         1 IH7      -0.081000
     33 CAD        240.9630     7.5120   147.2330 ca         1 IH7      -0.150500
     34 NAG        239.6590     7.2680   146.9140 na         1 IH7      -0.044400
     35 CAN        238.5100     7.6410   147.7180 c3         1 IH7       0.038300
     36 CAW        238.1320     9.1050   147.4910 c3         1 IH7       0.145800
     37 NAX        237.1690     9.5650   148.4650 n3         1 IH7      -0.721600
     38 CAY        235.8450     8.9960   148.2730 c6         1 IH7       0.125800
     39 CAZ        234.9040     9.4960   149.3520 c6         1 IH7       0.129900
     40 OBA        234.8350    10.9030   149.3770 os         1 IH7      -0.396600
     41 CBB        236.1150    11.4630   149.5640 c6         1 IH7       0.129900
     42 CBC        237.0840    11.0150   148.4870 c6         1 IH7       0.125800
     43 H1         237.3400     5.3860   140.4150 h4         1 IH7       0.039600
     44 H2         239.6420     7.6460   137.8620 h4         1 IH7       0.039600
     45 H3         241.2490     2.8430   140.0110 h1         1 IH7       0.071700
     46 H4         241.9800     1.7730   137.9240 hc         1 IH7       0.058700
     47 H5         240.2590     2.1520   137.8810 hc         1 IH7       0.058700
     48 H6         241.3970     3.1530   136.9750 hc         1 IH7       0.058700
     49 H7         241.4740     4.5580   141.5010 ha         1 IH7       0.182000
     50 H8         246.0810     6.1360   141.1210 h4         1 IH7       0.032100
     51 H9         243.1380     6.4410   144.2010 hn         1 IH7       0.368500
     52 H10        238.6610     6.4490   145.2370 h4         1 IH7       0.189000
     53 H11        245.4510     7.3280   146.0830 h4         1 IH7       0.023200
     54 H14        240.9800     8.3990   149.2060 ha         1 IH7       0.163000
     55 H15        237.6990     6.9630   147.4570 h1         1 IH7       0.074700
     56 H16        238.7480     7.4750   148.7690 h1         1 IH7       0.074700
     57 H17        239.0330     9.7150   147.5950 h1         1 IH7       0.047700
     58 H18        237.7810     9.2340   146.4540 h1         1 IH7       0.047700
     59 H20        235.4400     9.2460   147.2780 h1         1 IH7       0.043450
     60 H21        235.8860     7.9070   148.3400 h1         1 IH7       0.043450
     61 H22        233.8960     9.1220   149.1690 h1         1 IH7       0.054200
     62 H23        235.2350     9.1080   150.3270 h1         1 IH7       0.054200
     63 H24        236.5160    11.1860   150.5500 h1         1 IH7       0.054200
     64 H25        236.0050    12.5490   149.5410 h1         1 IH7       0.054200
     65 H26        238.0700    11.4320   148.7050 h1         1 IH7       0.043450
     66 H27        236.7660    11.4240   147.5130 h1         1 IH7       0.043450
@<TRIPOS>BOND
     1     1     2 1   
     2     2     3 ar  
     3     2     8 ar  
     4     3     4 ar  
     5     3    43 1   
     6     4     5 ar  
     7     5     6 ar  
     8     5    44 1   
     9     6     7 1   
    10     6     8 ar  
    11     8     9 1   
    12     9    10 1   
    13     9    11 1   
    14     9    45 1   
    15    10    46 1   
    16    10    47 1   
    17    10    48 1   
    18    11    12 1   
    19    12    13 ar  
    20    12    14 ar  
    21    13    19 ar  
    22    13    49 1   
    23    14    15 1   
    24    14    17 ar  
    25    15    16 3   
    26    17    18 ar  
    27    17    50 1   
    28    18    19 ar  
    29    19    20 1   
    30    20    21 1   
    31    20    51 1   
    32    21    22 2   
    33    21    23 1   
    34    23    24 2   
    35    23    25 1   
    36    24    34 1   
    37    24    52 1   
    38    25    26 ar  
    39    25    33 ar  
    40    26    27 ar  
    41    27    28 1   
    42    27    30 ar  
    43    28    29 2   
    44    28    53 1   
    45    30    31 1   
    46    30    32 ar  
    47    32    33 ar  
    48    32    54 1   
    49    33    34 1   
    50    34    35 1   
    51    35    36 1   
    52    35    55 1   
    53    35    56 1   
    54    36    37 1   
    55    36    57 1   
    56    36    58 1   
    57    37    38 1   
    58    37    42 1   
    59    38    39 1   
    60    38    59 1   
    61    38    60 1   
    62    39    40 1   
    63    39    61 1   
    64    39    62 1   
    65    40    41 1   
    66    41    42 1   
    67    41    63 1   
    68    41    64 1   
    69    42    65 1   
    70    42    66 1   
@<TRIPOS>SUBSTRUCTURE
     1 IH7         1 TEMP              0 ****  ****    0 ROOT
