@<TRIPOS>MOLECULE
IH7
   66    70     1     0     0
SMALL
No Charge or Current Charge


@<TRIPOS>ATOM
      1 ClBL       238.8460     3.2200   140.8340 cl         1 IH7      -0.164000
      2 CBG        239.2930     4.4740   139.6690 ca         1 IH7       0.082000
      3 CBH        238.4210     5.5690   139.5010 ca         1 IH7       0.350400
      4 NBI        238.6410     6.5740   138.6210 nb         1 IH7      -0.645000
      5 CBJ        239.7660     6.5010   137.8710 ca         1 IH7       0.350400
      6 CBK        240.7040     5.4500   137.9650 ca         1 IH7       0.082000
      7 ClBM       242.1080     5.5070   136.8890 cl         1 IH7      -0.164000
      8 CBE        240.4840     4.3990   138.8990 ca         1 IH7      -0.074300
      9 CBD        241.4650     3.2220   139.0840 c3         1 IH7       0.224600
     10 CBF        241.3890     2.2070   137.9290 c3         1 IH7      -0.089100
     11 OAU        242.8260     3.6880   139.1560 os         1 IH7      -0.319100
     12 CAQ        243.2850     4.5450   140.1390 ca         1 IH7       0.240100
     13 CAP        242.5240     4.8740   141.2720 ca         1 IH7      -0.289000
     14 CAR        244.5600     5.1140   140.0110 ca         1 IH7      -0.155000
     15 CBO        245.4030     4.8300   138.8920 cg         1 IH7       0.352000
     16 NBP        246.1020     4.6070   137.9850 n1         1 IH7      -0.464000
     17 CAS        245.0140     5.9850   141.0080 ca         1 IH7       0.443900
     18 NAT        244.2770     6.3160   142.0920 nb         1 IH7      -0.758000
     19 CAO        243.0560     5.7720   142.2040 ca         1 IH7       0.538900
     20 NAM        242.4040     6.2050   143.3540 ns         1 IH7      -0.314900
     21 CAK        241.0690     6.2710   143.6460 c          1 IH7       0.668300
     22 OAL        240.1920     5.9640   142.8510 o          1 IH7      -0.590100
     23 CAI        240.7620     6.7620   145.0020 cc         1 IH7      -0.350000
     24 CAH        239.4660     6.9130   145.4970 cd         1 IH7      -0.053100
     25 CAE        241.6610     7.1670   146.0420 ca         1 IH7       0.371800
     26 NAF        243.0040     7.1920   146.0110 nb         1 IH7      -0.637000
     27 CAA        243.6500     7.6270   147.1390 ca         1 IH7       0.272500
     28 CAJ        245.1710     7.6390   147.0560 c          1 IH7       0.482400
     29 OBN        245.9500     7.9860   147.9420 o          1 IH7      -0.480100
     30 CAB        242.9170     8.0390   148.3030 ca         1 IH7      -0.025900
     31 BrAV       243.7390     8.6640   149.9260 br         1 IH7      -0.040100
     32 CAC        241.5060     7.9940   148.2880 ca         1 IH7      -0.063000
     33 CAD        240.8960     7.5410   147.1110 ca         1 IH7      -0.085200
     34 NAG        239.5460     7.4000   146.8200 na         1 IH7      -0.073700
     35 CAN        238.4490     7.7320   147.7440 c3         1 IH7       0.067600
     36 CAW        238.1440     9.2460   147.7900 c3         1 IH7       0.145800
     37 NAX        237.1310     9.6480   148.8010 n3         1 IH7      -0.721600
     38 CAY        235.7700     9.0610   148.5690 c6         1 IH7       0.125800
     39 CAZ        234.7500     9.5180   149.6550 c6         1 IH7       0.153100
     40 OBA        234.7050    10.9630   149.7300 os         1 IH7      -0.443000
     41 CBB        235.9950    11.5450   150.0330 c6         1 IH7       0.153100
     42 CBC        237.0390    11.1350   148.9520 c6         1 IH7       0.125800
     43 H1         237.5060     5.6390   140.0900 h4         1 IH7       0.039600
     44 H2         239.9220     7.3130   137.1620 h4         1 IH7       0.039600
     45 H3         241.2370     2.6740   140.0060 h1         1 IH7       0.071700
     46 H4         242.0830     1.3760   138.1060 hc         1 IH7       0.058700
     47 H5         240.3770     1.7950   137.8520 hc         1 IH7       0.058700
     48 H6         241.6440     2.6710   136.9700 hc         1 IH7       0.058700
     49 H7         241.5490     4.4400   141.4440 ha         1 IH7       0.164000
     50 H8         246.0010     6.4440   140.9410 h4         1 IH7       0.032100
     51 H9         243.0200     6.5450   144.0780 hn         1 IH7       0.202000
     52 H10        238.5120     6.7140   145.0130 h4         1 IH7       0.239000
     53 H11        245.5760     7.2920   146.0790 h4         1 IH7       0.023200
     54 H14        240.9250     8.3000   149.1540 ha         1 IH7       0.145000
     55 H15        237.5540     7.1850   147.4250 h1         1 IH7       0.074700
     56 H16        238.7140     7.3840   148.7490 h1         1 IH7       0.074700
     57 H17        239.0880     9.7660   148.0030 h1         1 IH7       0.047700
     58 H18        237.8240     9.5680   146.7890 h1         1 IH7       0.047700
     59 H20        235.3880     9.3600   147.5810 h1         1 IH7       0.043450
     60 H21        235.8110     7.9630   148.5810 h1         1 IH7       0.043450
     61 H22        233.7480     9.1380   149.4120 h1         1 IH7       0.054200
     62 H23        235.0400     9.1130   150.6360 h1         1 IH7       0.054200
     63 H24        236.3260    11.2010   151.0240 h1         1 IH7       0.054200
     64 H25        235.8990    12.6390   150.0650 h1         1 IH7       0.054200
     65 H26        238.0180    11.5510   149.2340 h1         1 IH7       0.043450
     66 H27        236.7550    11.5990   147.9960 h1         1 IH7       0.043450
@<TRIPOS>BOND
     1     1     2 1   
     2     2     3 ar  
     3     2     8 ar  
     4     3     4 ar  
     5     3    43 1   
     6     4     5 ar  
     7     5     6 ar  
     8     5    44 1   
     9     6     7 1   
    10     6     8 ar  
    11     8     9 1   
    12     9    10 1   
    13     9    11 1   
    14     9    45 1   
    15    10    46 1   
    16    10    47 1   
    17    10    48 1   
    18    11    12 1   
    19    12    13 ar  
    20    12    14 ar  
    21    13    19 ar  
    22    13    49 1   
    23    14    15 1   
    24    14    17 ar  
    25    15    16 3   
    26    17    18 ar  
    27    17    50 1   
    28    18    19 ar  
    29    19    20 1   
    30    20    21 1   
    31    20    51 1   
    32    21    22 2   
    33    21    23 1   
    34    23    24 2   
    35    23    25 1   
    36    24    34 1   
    37    24    52 1   
    38    25    26 ar  
    39    25    33 ar  
    40    26    27 ar  
    41    27    28 1   
    42    27    30 ar  
    43    28    29 2   
    44    28    53 1   
    45    30    31 1   
    46    30    32 ar  
    47    32    33 ar  
    48    32    54 1   
    49    33    34 1   
    50    34    35 1   
    51    35    36 1   
    52    35    55 1   
    53    35    56 1   
    54    36    37 1   
    55    36    57 1   
    56    36    58 1   
    57    37    38 1   
    58    37    42 1   
    59    38    39 1   
    60    38    59 1   
    61    38    60 1   
    62    39    40 1   
    63    39    61 1   
    64    39    62 1   
    65    40    41 1   
    66    41    42 1   
    67    41    63 1   
    68    41    64 1   
    69    42    65 1   
    70    42    66 1   
@<TRIPOS>SUBSTRUCTURE
     1 IH7         1 TEMP              0 ****  ****    0 ROOT
