@<TRIPOS>MOLECULE
IH8
   51    55     1     0     0
SMALL
No Charge or Current Charge


@<TRIPOS>ATOM
      1 C10        102.6860   130.0150    35.4090 ca         1 IH8       0.342000
      2 C11        104.0400   132.2660    36.3670 ca         1 IH8       0.350300
      3 C15        105.9020   133.3410    37.9270 cx         1 IH8      -0.111400
      4 C16        102.5920   125.6240    42.3720 ca         1 IH8       0.325000
      5 C21        102.9100   131.1090    34.5510 ca         1 IH8      -0.155000
      6 C22        101.7750   128.3290    33.6470 ca         1 IH8       0.201000
      7 C23        103.5950   132.2380    35.0330 ca         1 IH8      -0.088000
      8 C24        101.3120   127.2060    31.2310 ca         1 IH8       0.091900
      9 C25        104.7670   129.9770    41.7400 c3         1 IH8       0.068900
     10 C26        102.5890   128.6110    32.5240 ca         1 IH8       0.068400
     11 C27        100.7220   127.4100    33.4400 ca         1 IH8       0.068400
     12 C28        101.4220   123.6140    42.1790 ca         1 IH8       0.337900
     13 C1         103.4070   128.4740    40.1810 cc         1 IH8      -0.029400
     14 C2         103.1380   130.1330    36.7640 ca         1 IH8       0.214500
     15 N3         103.7840   127.7960    42.3660 nc         1 IH8      -0.517800
     16 C4         102.8120   127.2640    40.3830 cd         1 IH8      -0.163000
     17 C5         103.0620   126.8830    41.7240 cd         1 IH8       0.199000
     18 N6         103.9920   128.7710    41.4090 na         1 IH8       0.120800
     19 N7         103.8130   131.2410    37.2200 nb         1 IH8      -0.668000
     20 C8         102.8720   129.0160    37.7780 c          1 IH8       0.531600
     21 N9         103.4380   129.2490    39.0230 ns         1 IH8      -0.385100
     22 C12        104.7820   133.4630    36.9110 cx         1 IH8      -0.190000
     23 N13        102.0050   128.8760    34.9270 nu         1 IH8      -0.972000
     24 C14        104.5890   133.9720    38.3270 cx         1 IH8      -0.111400
     25 O17        102.2080   128.0100    37.5350 o          1 IH8      -0.602100
     26 N18        101.8590   124.7620    41.6140 nb         1 IH8      -0.665000
     27 N19        100.4830   126.8510    32.2350 nb         1 IH8      -0.149500
     28 N20        102.3580   128.0550    31.3150 nb         1 IH8      -0.149500
     29 C29        102.8990   125.3400    43.7240 ca         1 IH8      -0.136000
     30 C30        101.6900   123.2690    43.5130 ca         1 IH8      -0.166000
     31 C31        102.4430   124.1470    44.3060 ca         1 IH8      -0.079000
     32 H39        106.1320   132.3570    38.3270 hc         1 IH8       0.076200
     33 H38        106.7640   133.9940    37.8110 hc         1 IH8       0.076200
     34 H40        102.5430   131.1020    33.5300 ha         1 IH8       0.133000
     35 H41        103.7770   133.0870    34.3800 ha         1 IH8       0.129000
     36 H42        101.1230   126.7570    30.2580 h5         1 IH8       0.055100
     37 H44        105.0960   129.9390    42.7860 h1         1 IH8       0.057700
     38 H45        105.6460   130.0350    41.0870 h1         1 IH8       0.057700
     39 H43        104.1420   130.8650    41.5900 h1         1 IH8       0.057700
     40 H46        103.4530   129.2690    32.5900 h4         1 IH8       0.032100
     41 H47        100.0550   127.1210    34.2510 h4         1 IH8       0.032100
     42 H48        100.8390   122.9500    41.5410 h4         1 IH8       0.018100
     43 H32        102.2480   126.6850    39.6620 ha         1 IH8       0.173000
     44 H33        103.9350   130.1360    39.0450 hn         1 IH8       0.357500
     45 H34        104.9180   134.2280    36.1500 hc         1 IH8       0.086700
     46 H35        101.7040   128.2630    35.7020 hn         1 IH8       0.546000
     47 H36        104.5700   135.0490    38.4800 hc         1 IH8       0.076200
     48 H37        103.9410   133.4090    38.9940 hc         1 IH8       0.076200
     49 H49        103.4850   126.0390    44.3140 ha         1 IH8       0.138000
     50 H50        101.3150   122.3340    43.9200 ha         1 IH8       0.122000
     51 H51        102.6690   123.9100    45.3450 ha         1 IH8       0.117000
@<TRIPOS>BOND
     1     1     5 ar  
     2     1    14 ar  
     3     1    23 1   
     4     2     7 ar  
     5     2    19 ar  
     6     2    22 1   
     7     3    22 1   
     8     3    24 1   
     9     3    32 1   
    10     3    33 1   
    11     4    17 1   
    12     4    26 ar  
    13     4    29 ar  
    14     5     7 ar  
    15     5    34 1   
    16     6    10 ar  
    17     6    11 ar  
    18     6    23 1   
    19     7    35 1   
    20     8    27 ar  
    21     8    28 ar  
    22     8    36 1   
    23     9    18 1   
    24     9    37 1   
    25     9    38 1   
    26     9    39 1   
    27    10    28 ar  
    28    10    40 1   
    29    11    27 ar  
    30    11    41 1   
    31    12    26 ar  
    32    12    30 ar  
    33    12    42 1   
    34    13    16 2   
    35    13    18 1   
    36    13    21 1   
    37    14    19 ar  
    38    14    20 1   
    39    15    17 2   
    40    15    18 1   
    41    16    17 1   
    42    16    43 1   
    43    20    21 1   
    44    20    25 2   
    45    21    44 1   
    46    22    24 1   
    47    22    45 1   
    48    23    46 1   
    49    24    47 1   
    50    24    48 1   
    51    29    31 ar  
    52    29    49 1   
    53    30    31 ar  
    54    30    50 1   
    55    31    51 1   
@<TRIPOS>SUBSTRUCTURE
     1 IH8         1 TEMP              0 ****  ****    0 ROOT
