@<TRIPOS>MOLECULE
IH8
   51    55     1     0     0
SMALL
abcg2


@<TRIPOS>ATOM
      1 C10        102.6810   129.9730    35.4400 ca         1 IH8       0.342000
      2 C11        104.3980   131.9640    36.3430 ca         1 IH8       0.350300
      3 C15        106.3880   132.6220    37.8500 cx         1 IH8      -0.111400
      4 C16        102.8980   125.6210    42.3440 ca         1 IH8       0.325000
      5 C21        103.0460   131.0320    34.5920 ca         1 IH8      -0.155000
      6 C22        101.4810   128.6150    33.7580 ca         1 IH8       0.201000
      7 C23        103.9000   132.0100    35.0340 ca         1 IH8      -0.088000
      8 C24        100.7210   127.8150    31.3250 ca         1 IH8       0.091900
      9 C25        103.0740   130.3820    41.6860 c3         1 IH8       0.068900
     10 C26        102.3280   128.6910    32.6530 ca         1 IH8       0.068400
     11 C27        100.2200   128.0710    33.5090 ca         1 IH8       0.068400
     12 C28        102.8880   123.3410    42.2110 ca         1 IH8       0.337900
     13 C1         103.2480   128.4450    40.0970 cc         1 IH8      -0.029400
     14 C2         103.1980   130.0310    36.7470 ca         1 IH8       0.214500
     15 N3         102.9500   128.0520    42.2610 nc         1 IH8      -0.517800
     16 C4         103.2110   127.0780    40.2460 cd         1 IH8      -0.163000
     17 C5         103.0180   126.8920    41.6250 cd         1 IH8       0.199000
     18 N6         103.0730   128.9830    41.3260 na         1 IH8       0.120800
     19 N7         104.0200   130.9970    37.1500 nb         1 IH8      -0.668000
     20 C8         102.8410   129.0250    37.7870 c          1 IH8       0.531600
     21 N9         103.4310   129.2490    38.9860 ns         1 IH8      -0.385100
     22 C12        105.3300   132.9950    36.8470 cx         1 IH8      -0.190000
     23 N13        101.8310   128.9720    35.0480 nu         1 IH8      -0.972000
     24 C14        105.2350   133.4630    38.2750 cx         1 IH8      -0.111400
     25 O17        102.0810   128.0890    37.5820 o          1 IH8      -0.602100
     26 N18        102.9900   124.5160    41.6060 nb         1 IH8      -0.665000
     27 N19         99.8450   127.6690    32.3080 nb         1 IH8      -0.149500
     28 N20        101.9440   128.3050    31.4460 nb         1 IH8      -0.149500
     29 C29        102.6990   125.5810    43.7240 ca         1 IH8      -0.136000
     30 C30        102.6930   123.1970    43.5760 ca         1 IH8      -0.166000
     31 C31        102.5970   124.3490    44.3440 ca         1 IH8      -0.079000
     32 H39        106.4110   131.5910    38.1790 hc         1 IH8       0.076200
     33 H38        107.3600   133.0870    37.7450 hc         1 IH8       0.076200
     34 H40        102.6430   131.0990    33.5900 ha         1 IH8       0.133000
     35 H41        104.1770   132.8220    34.3740 ha         1 IH8       0.129000
     36 H42        100.4090   127.5010    30.3350 h5         1 IH8       0.055100
     37 H44        102.4290   130.5180    42.5490 h1         1 IH8       0.057700
     38 H45        104.0780   130.7260    41.9300 h1         1 IH8       0.057700
     39 H43        102.6850   130.9770    40.8620 h1         1 IH8       0.057700
     40 H46        103.3440   129.0610    32.7460 h4         1 IH8       0.032100
     41 H47         99.5090   127.9530    34.3220 h4         1 IH8       0.032100
     42 H48        102.9680   122.4650    41.5760 h4         1 IH8       0.018100
     43 H32        103.3120   126.3290    39.4810 ha         1 IH8       0.173000
     44 H33        104.0590   130.0440    39.0270 hn         1 IH8       0.357500
     45 H34        105.6040   133.7420    36.1110 hc         1 IH8       0.086700
     46 H35        101.4940   128.3820    35.8000 hn         1 IH8       0.546000
     47 H36        105.4030   134.5150    38.4650 hc         1 IH8       0.076200
     48 H37        104.4720   133.0070    38.8920 hc         1 IH8       0.076200
     49 H49        102.6260   126.4970    44.2940 ha         1 IH8       0.138000
     50 H50        102.6190   122.2130    44.0190 ha         1 IH8       0.122000
     51 H51        102.4430   124.2870    45.4140 ha         1 IH8       0.117000
@<TRIPOS>BOND
     1     1     5 ar  
     2     1    14 ar  
     3     1    23 1   
     4     2     7 ar  
     5     2    19 ar  
     6     2    22 1   
     7     3    22 1   
     8     3    24 1   
     9     3    32 1   
    10     3    33 1   
    11     4    17 1   
    12     4    26 ar  
    13     4    29 ar  
    14     5     7 ar  
    15     5    34 1   
    16     6    10 ar  
    17     6    11 ar  
    18     6    23 1   
    19     7    35 1   
    20     8    27 ar  
    21     8    28 ar  
    22     8    36 1   
    23     9    18 1   
    24     9    37 1   
    25     9    38 1   
    26     9    39 1   
    27    10    28 ar  
    28    10    40 1   
    29    11    27 ar  
    30    11    41 1   
    31    12    26 ar  
    32    12    30 ar  
    33    12    42 1   
    34    13    16 2   
    35    13    18 1   
    36    13    21 1   
    37    14    19 ar  
    38    14    20 1   
    39    15    17 2   
    40    15    18 1   
    41    16    17 1   
    42    16    43 1   
    43    20    21 1   
    44    20    25 2   
    45    21    44 1   
    46    22    24 1   
    47    22    45 1   
    48    23    46 1   
    49    24    47 1   
    50    24    48 1   
    51    29    31 ar  
    52    29    49 1   
    53    30    31 ar  
    54    30    50 1   
    55    31    51 1   
@<TRIPOS>SUBSTRUCTURE
     1 IH8         1 TEMP              0 ****  ****    0 ROOT
