@<TRIPOS>MOLECULE
IH9
   27    27     1     0     0
SMALL
No Charge or Current Charge


@<TRIPOS>ATOM
      1 OAD          4.2460    -1.2150    -0.4930 o          1 IH9      -0.697533
      2 SAO          4.0230     0.0810     0.1650 s6         1 IH9       1.322600
      3 OAA          4.7410     0.2490     1.4370 o          1 IH9      -0.697533
      4 OAB          4.0980     1.2430    -0.7330 o          1 IH9      -0.697533
      5 CAJ          2.2940     0.0270     0.6630 c3         1 IH9      -0.359400
      6 CAI          1.3660    -0.1450    -0.5370 c3         1 IH9       0.194800
      7 NAL         -0.0130    -0.1900    -0.0360 n7         1 IH9      -0.862400
      8 CAK         -1.0530    -0.3230    -1.0740 c3         1 IH9       0.197100
      9 CAN         -2.4460    -0.3160    -0.4550 ca         1 IH9      -0.037300
     10 CAH         -3.1970     0.8750    -0.3980 ca         1 IH9      -0.146000
     11 CAG         -2.9990    -1.5040     0.0650 ca         1 IH9      -0.117000
     12 CAE         -4.2850    -1.5010     0.6320 ca         1 IH9      -0.083000
     13 CAF         -5.0280    -0.3090     0.6830 ca         1 IH9      -0.215000
     14 CAM         -4.4820     0.8770     0.1680 ca         1 IH9       0.124100
     15 OAC         -5.1990     2.0330     0.2160 oh         1 IH9      -0.541100
     16 H1           2.1940    -0.8140     1.3550 h1         1 IH9       0.070700
     17 H2           1.4970     0.6960    -1.2330 h1         1 IH9       0.040700
     18 H3          -0.1910     0.6810     0.4740 hn         1 IH9       0.402000
     19 H4          -0.9790     0.5030    -1.7960 h1         1 IH9       0.034700
     20 H5          -0.9150    -1.2580    -1.6350 h1         1 IH9       0.034700
     21 H6          -2.7840     1.7990    -0.7950 ha         1 IH9       0.124000
     22 H7          -2.4260    -2.4280     0.0310 ha         1 IH9       0.136000
     23 H8          -4.7050    -2.4220     1.0320 ha         1 IH9       0.105000
     24 H9          -6.0220    -0.3140     1.1230 ha         1 IH9       0.101000
     25 H10         -6.0620     1.8400     0.6420 ho         1 IH9       0.455000
     26 H12          2.0900     0.9670     1.1860 h1         1 IH9       0.070700
     27 H13          1.6120    -1.0730    -1.0720 h1         1 IH9       0.040700
@<TRIPOS>BOND
     1     1     2 1   
     2     2     3 1   
     3     2     4 1   
     4     2     5 1   
     5     5     6 1   
     6     5    16 1   
     7     5    26 1   
     8     6     7 1   
     9     6    17 1   
    10     6    27 1   
    11     7     8 1   
    12     7    18 1   
    13     8     9 1   
    14     8    19 1   
    15     8    20 1   
    16     9    10 ar  
    17     9    11 ar  
    18    10    14 ar  
    19    10    21 1   
    20    11    12 ar  
    21    11    22 1   
    22    12    13 ar  
    23    12    23 1   
    24    13    14 ar  
    25    13    24 1   
    26    14    15 1   
    27    15    25 1   
@<TRIPOS>SUBSTRUCTURE
     1 IH9         1 TEMP              0 ****  ****    0 ROOT
