@<TRIPOS>MOLECULE
IH9
   27    27     1     0     0
SMALL
bcc


@<TRIPOS>ATOM
      1 OAD          4.1310    -1.3300    -0.8340 o          1 IH9      -0.697533
      2 SAO          4.0260    -0.1670     0.0710 s6         1 IH9       1.211800
      3 OAA          4.8490    -0.3060     1.2890 o          1 IH9      -0.697533
      4 OAB          4.2300     1.1210    -0.6240 o          1 IH9      -0.697533
      5 CAJ          2.3230    -0.1540     0.6540 c3         1 IH9      -0.248600
      6 CAI          1.3100    -0.0280    -0.4700 c3         1 IH9       0.194800
      7 NAL         -0.0380    -0.1060     0.0640 n7         1 IH9      -0.807200
      8 CAK         -1.0500     0.0020    -0.9690 c3         1 IH9       0.197100
      9 CAN         -2.4330    -0.1360    -0.3910 ca         1 IH9      -0.037300
     10 CAH         -3.3780     0.8610    -0.5840 ca         1 IH9      -0.164000
     11 CAG         -2.7750    -1.2700     0.3460 ca         1 IH9      -0.135000
     12 CAE         -4.0530    -1.3960     0.8640 ca         1 IH9      -0.101000
     13 CAF         -5.0040    -0.4010     0.6690 ca         1 IH9      -0.233000
     14 CAM         -4.6640     0.7340    -0.0580 ca         1 IH9       0.124100
     15 OAC         -5.5300     1.7450    -0.2800 oh         1 IH9      -0.502100
     16 H1           2.1630    -1.0810     1.2080 h1         1 IH9       0.070700
     17 H2           1.4920     0.9000    -1.0300 h1         1 IH9       0.040700
     18 H3          -0.1740     0.6450     0.7310 hn         1 IH9       0.346800
     19 H4          -0.9840     0.9400    -1.5410 h1         1 IH9       0.034700
     20 H5          -0.8800    -0.8050    -1.6890 h1         1 IH9       0.034700
     21 H6          -3.1210     1.7510    -1.1480 ha         1 IH9       0.142000
     22 H7          -2.0390    -2.0470     0.5100 ha         1 IH9       0.154000
     23 H8          -4.3220    -2.2790     1.4300 ha         1 IH9       0.123000
     24 H9          -6.0000    -0.5110     1.0820 ha         1 IH9       0.119000
     25 H10         -6.3800     1.5510     0.1310 ho         1 IH9       0.416000
     26 H12          2.2300     0.6780     1.3570 h1         1 IH9       0.070700
     27 H13          1.4440    -0.8530    -1.1740 h1         1 IH9       0.040700
@<TRIPOS>BOND
     1     1     2 1   
     2     2     3 1   
     3     2     4 1   
     4     2     5 1   
     5     5     6 1   
     6     5    16 1   
     7     5    26 1   
     8     6     7 1   
     9     6    17 1   
    10     6    27 1   
    11     7     8 1   
    12     7    18 1   
    13     8     9 1   
    14     8    19 1   
    15     8    20 1   
    16     9    10 ar  
    17     9    11 ar  
    18    10    14 ar  
    19    10    21 1   
    20    11    12 ar  
    21    11    22 1   
    22    12    13 ar  
    23    12    23 1   
    24    13    14 ar  
    25    13    24 1   
    26    14    15 1   
    27    15    25 1   
@<TRIPOS>SUBSTRUCTURE
     1 IH9         1 TEMP              0 ****  ****    0 ROOT
