@<TRIPOS>MOLECULE
IHA
   50    53     1     0     0
SMALL
abcg2


@<TRIPOS>ATOM
      1 O27         -9.1560     2.8620    -1.8220 o          1 IHA      -0.710500
      2 C25         -8.3930     2.5410    -0.8900 c          1 IHA       0.729000
      3 O26         -8.5670     2.6910     0.3270 o          1 IHA      -0.710500
      4 C24         -7.0920     1.8710    -1.3660 c3         1 IHA       0.000600
      5 O23         -6.2360     1.6100    -0.2700 os         1 IHA      -0.291100
      6 C22         -5.1220     0.8850    -0.4690 ca         1 IHA       0.172100
      7 C21         -4.4340     0.4920     0.6750 ca         1 IHA      -0.117000
      8 C28         -4.6350     0.5330    -1.7380 ca         1 IHA      -0.190000
      9 C29         -3.4720    -0.2080    -1.8730 ca         1 IHA      -0.048000
     10 C30         -2.7930    -0.6020    -0.7320 ca         1 IHA      -0.227000
     11 C20         -3.2670    -0.2500     0.5430 ca         1 IHA       0.126400
     12 N19         -2.4910    -0.7000     1.5900 nc         1 IHA      -0.523100
     13 S31         -1.3380    -1.5300    -0.5700 ss         1 IHA      -0.025200
     14 C18         -1.4830    -1.3670     1.1620 cd         1 IHA       0.381200
     15 C17         -0.4870    -2.0610     2.0390 c3         1 IHA       0.221500
     16 N16          0.7950    -2.1840     1.4060 nu         1 IHA      -0.925100
     17 C15          1.6090    -1.1270     1.2050 ca         1 IHA       0.314900
     18 N14          1.1340     0.0810     1.5000 nb         1 IHA      -0.140000
     19 N13          1.9150     1.1150     1.2980 nb         1 IHA      -0.249000
     20 C12          3.1230     0.9420     0.8160 ca         1 IHA       0.182900
     21 N32          2.8240    -1.3860     0.7010 nb         1 IHA      -0.192000
     22 C11          3.5960    -0.3450     0.5040 cp         1 IHA       0.212500
     23 C10          4.9520    -0.5490    -0.0410 cp         1 IHA      -0.236500
     24 C3           5.8940    -1.3050     0.6670 ca         1 IHA       0.207100
     25 O2           5.4870    -1.7890     1.8490 os         1 IHA      -0.327100
     26 C1           6.4030    -2.5240     2.6380 c3         1 IHA       0.149400
     27 C7           5.3000     0.0150    -1.2730 ca         1 IHA       0.207100
     28 O8           4.3290     0.7120    -1.8850 os         1 IHA      -0.327100
     29 C9           4.5960     1.2980    -3.1450 c3         1 IHA       0.149400
     30 C6           6.5770    -0.1730    -1.7980 ca         1 IHA      -0.244000
     31 C5           7.4900    -0.9250    -1.0770 ca         1 IHA      -0.024000
     32 C4           7.1730    -1.4940     0.1450 ca         1 IHA      -0.244000
     33 H2          -7.3450     0.9400    -1.8880 h1         1 IHA       0.017200
     34 H3          -6.6000     2.5250    -2.0970 h1         1 IHA       0.017200
     35 H4          -4.8040     0.7570     1.6570 ha         1 IHA       0.147000
     36 H5          -5.1550     0.8340    -2.6370 ha         1 IHA       0.125000
     37 H6          -3.1120    -0.4680    -2.8590 ha         1 IHA       0.107000
     38 H7          -0.4410    -1.5430     3.0000 h1         1 IHA       0.068700
     39 H8          -0.8480    -3.0730     2.2300 h1         1 IHA       0.068700
     40 H9           1.2100    -3.0980     1.3330 hn         1 IHA       0.506000
     41 H10          3.7320     1.8250     0.6820 h4         1 IHA       0.036100
     42 H11          5.8800    -2.7760     3.5570 h1         1 IHA       0.043033
     43 H12          6.7130    -3.4470     2.1430 h1         1 IHA       0.043033
     44 H13          7.2910    -1.9390     2.8870 h1         1 IHA       0.043033
     45 H14          3.6790     1.7940    -3.4520 h1         1 IHA       0.043033
     46 H15          5.3960     2.0400    -3.0860 h1         1 IHA       0.043033
     47 H16          4.8600     0.5480    -3.8950 h1         1 IHA       0.043033
     48 H17          6.8640     0.2480    -2.7510 ha         1 IHA       0.120000
     49 H18          8.4830    -1.0720    -1.4810 ha         1 IHA       0.108000
     50 H19          7.9190    -2.0720     0.6720 ha         1 IHA       0.120000
@<TRIPOS>BOND
     1     1     2 1   
     2     2     3 1   
     3     2     4 1   
     4     4     5 1   
     5     4    33 1   
     6     4    34 1   
     7     5     6 1   
     8     6     7 ar  
     9     6     8 ar  
    10     7    11 ar  
    11     7    35 1   
    12     8     9 ar  
    13     8    36 1   
    14     9    10 ar  
    15     9    37 1   
    16    10    11 ar  
    17    10    13 1   
    18    11    12 1   
    19    12    14 2   
    20    13    14 1   
    21    14    15 1   
    22    15    16 1   
    23    15    38 1   
    24    15    39 1   
    25    16    17 1   
    26    16    40 1   
    27    17    18 ar  
    28    17    21 ar  
    29    18    19 ar  
    30    19    20 ar  
    31    20    22 ar  
    32    20    41 1   
    33    21    22 ar  
    34    22    23 1   
    35    23    24 ar  
    36    23    27 ar  
    37    24    25 1   
    38    24    32 ar  
    39    25    26 1   
    40    26    42 1   
    41    26    43 1   
    42    26    44 1   
    43    27    28 1   
    44    27    30 ar  
    45    28    29 1   
    46    29    45 1   
    47    29    46 1   
    48    29    47 1   
    49    30    31 ar  
    50    30    48 1   
    51    31    32 ar  
    52    31    49 1   
    53    32    50 1   
@<TRIPOS>SUBSTRUCTURE
     1 IHA         1 TEMP              0 ****  ****    0 ROOT
