@<TRIPOS>MOLECULE
IHA
   50    53     1     0     0
SMALL
No Charge or Current Charge


@<TRIPOS>ATOM
      1 O27         -8.7200     3.4730    -2.0960 o          1 IHA      -0.710500
      2 C25         -7.9730     3.1120    -1.1950 c          1 IHA       0.729000
      3 O26         -8.0480     3.5500    -0.0520 o          1 IHA      -0.710500
      4 C24         -6.8890     2.0480    -1.5410 c3         1 IHA       0.000600
      5 O23         -6.0600     1.6900    -0.4090 os         1 IHA      -0.291100
      6 C22         -5.0410     0.7630    -0.5060 ca         1 IHA       0.172100
      7 C21         -4.2930     0.4850     0.6540 ca         1 IHA      -0.117000
      8 C28         -4.7330     0.0960    -1.7180 ca         1 IHA      -0.190000
      9 C29         -3.6840    -0.8400    -1.7590 ca         1 IHA      -0.048000
     10 C30         -2.9630    -1.0900    -0.5840 ca         1 IHA      -0.227000
     11 C20         -3.2480    -0.4490     0.6080 ca         1 IHA       0.126400
     12 N19         -2.4650    -0.7780     1.7100 nc         1 IHA      -0.523100
     13 S31         -1.6280    -2.2130    -0.4240 ss         1 IHA      -0.025200
     14 C18         -1.5720    -1.6900     1.2810 cd         1 IHA       0.381200
     15 C17         -0.5500    -2.2940     2.2410 c3         1 IHA       0.221500
     16 N16          0.8530    -2.2440     1.7250 nu         1 IHA      -0.925100
     17 C15          1.6030    -1.1110     1.4270 ca         1 IHA       0.314900
     18 N14          1.0770     0.1080     1.6940 nb         1 IHA      -0.140000
     19 N13          1.7950     1.2120     1.4050 nb         1 IHA      -0.249000
     20 C12          3.0220     1.0570     0.8550 ca         1 IHA       0.182900
     21 N32          2.8150    -1.3310     0.8850 nb         1 IHA      -0.192000
     22 C11          3.5510    -0.2360     0.5880 cp         1 IHA       0.212500
     23 C10          4.9000    -0.4430    -0.0280 cp         1 IHA      -0.236500
     24 C3           5.8850    -1.2530     0.5950 ca         1 IHA       0.207100
     25 O2           5.5600    -1.8160     1.8130 os         1 IHA      -0.327100
     26 C1           6.4730    -2.6520     2.5450 c3         1 IHA       0.149400
     27 C7           5.2310     0.1790    -1.2570 ca         1 IHA       0.207100
     28 O8           4.2500     0.9500    -1.8500 os         1 IHA      -0.327100
     29 C9           4.4530     1.6230    -3.1050 c3         1 IHA       0.149400
     30 C6           6.4970    -0.0070    -1.8470 ca         1 IHA      -0.244000
     31 C5           7.4540    -0.8150    -1.2180 ca         1 IHA      -0.024000
     32 C4           7.1510    -1.4360     0.0010 ca         1 IHA      -0.244000
     33 H2          -7.4080     1.1600    -1.9250 h1         1 IHA       0.017200
     34 H3          -6.2690     2.4580    -2.3480 h1         1 IHA       0.017200
     35 H4          -4.5270     0.9940     1.5840 ha         1 IHA       0.147000
     36 H5          -5.2940     0.2920    -2.6270 ha         1 IHA       0.125000
     37 H6          -3.4390    -1.3580    -2.6840 ha         1 IHA       0.107000
     38 H7          -0.6130    -1.7650     3.2010 h1         1 IHA       0.068700
     39 H8          -0.8430    -3.3360     2.4280 h1         1 IHA       0.068700
     40 H9           1.3080    -3.1370     1.5180 hn         1 IHA       0.506000
     41 H10          3.5860     1.9610     0.6320 h4         1 IHA       0.036100
     42 H11          6.0090    -2.9940     3.4780 h1         1 IHA       0.043033
     43 H12          6.7470    -3.5370     1.9570 h1         1 IHA       0.043033
     44 H13          7.3860    -2.1010     2.8020 h1         1 IHA       0.043033
     45 H14          3.5490     2.1750    -3.3890 h1         1 IHA       0.043033
     46 H15          5.2810     2.3390    -3.0330 h1         1 IHA       0.043033
     47 H16          4.6760     0.9030    -3.9020 h1         1 IHA       0.043033
     48 H17          6.7560     0.4620    -2.7910 ha         1 IHA       0.120000
     49 H18          8.4320    -0.9580    -1.6750 ha         1 IHA       0.108000
     50 H19          7.9130    -2.0500     0.4710 ha         1 IHA       0.120000
@<TRIPOS>BOND
     1     1     2 1   
     2     2     3 1   
     3     2     4 1   
     4     4     5 1   
     5     4    33 1   
     6     4    34 1   
     7     5     6 1   
     8     6     7 ar  
     9     6     8 ar  
    10     7    11 ar  
    11     7    35 1   
    12     8     9 ar  
    13     8    36 1   
    14     9    10 ar  
    15     9    37 1   
    16    10    11 ar  
    17    10    13 1   
    18    11    12 1   
    19    12    14 2   
    20    13    14 1   
    21    14    15 1   
    22    15    16 1   
    23    15    38 1   
    24    15    39 1   
    25    16    17 1   
    26    16    40 1   
    27    17    18 ar  
    28    17    21 ar  
    29    18    19 ar  
    30    19    20 ar  
    31    20    22 ar  
    32    20    41 1   
    33    21    22 ar  
    34    22    23 1   
    35    23    24 ar  
    36    23    27 ar  
    37    24    25 1   
    38    24    32 ar  
    39    25    26 1   
    40    26    42 1   
    41    26    43 1   
    42    26    44 1   
    43    27    28 1   
    44    27    30 ar  
    45    28    29 1   
    46    29    45 1   
    47    29    46 1   
    48    29    47 1   
    49    30    31 ar  
    50    30    48 1   
    51    31    32 ar  
    52    31    49 1   
    53    32    50 1   
@<TRIPOS>SUBSTRUCTURE
     1 IHA         1 TEMP              0 ****  ****    0 ROOT
