@<TRIPOS>MOLECULE
IHB
   15    15     1     0     0
SMALL
No Charge or Current Charge


@<TRIPOS>ATOM
      1 C1         -19.6300   -24.8420    27.1610 ca         1 IHB      -0.159600
      2 C2         -21.0210   -24.7800    26.9090 ca         1 IHB      -0.029000
      3 C3         -21.9460   -25.2000    27.8800 ca         1 IHB       0.159000
      4 I3         -24.0770   -25.0780    27.4300 i          1 IHB      -0.372000
      5 C4         -21.4920   -25.6910    29.1230 ca         1 IHB       0.120100
      6 O4         -22.3710   -26.1060    30.0840 oh         1 IHB      -0.543100
      7 C5         -20.1150   -25.7570    29.3830 ca         1 IHB      -0.229000
      8 C6         -19.1890   -25.3370    28.4110 ca         1 IHB      -0.037000
      9 C7         -18.6350   -24.3880    26.1110 c          1 IHB       0.709600
     10 O1         -19.0640   -23.9690    25.0460 o          1 IHB      -0.719500
     11 O2         -17.4420   -24.4570    26.3660 o          1 IHB      -0.719500
     12 H2         -21.3940   -24.4050    25.9600 ha         1 IHB       0.146000
     13 HO4        -21.8560   -26.4070    30.8630 ho         1 IHB       0.450000
     14 H5         -19.7520   -26.1340    30.3370 ha         1 IHB       0.090000
     15 H6         -18.1250   -25.3970    28.6340 ha         1 IHB       0.133000
@<TRIPOS>BOND
     1     1     2 ar  
     2     1     8 ar  
     3     1     9 1   
     4     2     3 ar  
     5     2    12 1   
     6     3     4 1   
     7     3     5 ar  
     8     5     6 1   
     9     5     7 ar  
    10     6    13 1   
    11     7     8 ar  
    12     7    14 1   
    13     8    15 1   
    14     9    10 1   
    15     9    11 1   
@<TRIPOS>SUBSTRUCTURE
     1 IHB         1 TEMP              0 ****  ****    0 ROOT
