@<TRIPOS>MOLECULE
IHB
   15    15     1     0     0
SMALL
abcg2


@<TRIPOS>ATOM
      1 C1         -19.6370   -24.8450    27.1700 ca         1 IHB      -0.159600
      2 C2         -21.0090   -24.7910    26.9300 ca         1 IHB      -0.029000
      3 C3         -21.9160   -25.2100    27.8920 ca         1 IHB       0.159000
      4 I3         -23.9900   -25.1200    27.4820 i          1 IHB      -0.372000
      5 C4         -21.4770   -25.6920    29.1280 ca         1 IHB       0.120100
      6 O4         -22.3910   -26.0950    30.0470 oh         1 IHB      -0.543100
      7 C5         -20.1020   -25.7420    29.3710 ca         1 IHB      -0.229000
      8 C6         -19.2010   -25.3280    28.4040 ca         1 IHB      -0.037000
      9 C7         -18.6450   -24.3870    26.1050 c          1 IHB       0.709600
     10 O1         -19.1240   -23.8880    25.0550 o          1 IHB      -0.719500
     11 O2         -17.4250   -24.5470    26.3610 o          1 IHB      -0.719500
     12 H2         -21.3560   -24.4170    25.9770 ha         1 IHB       0.146000
     13 HO4        -21.9410   -26.4000    30.8470 ho         1 IHB       0.450000
     14 H5         -19.7550   -26.1120    30.3300 ha         1 IHB       0.090000
     15 H6         -18.1390   -25.3740    28.6010 ha         1 IHB       0.133000
@<TRIPOS>BOND
     1     1     2 ar  
     2     1     8 ar  
     3     1     9 1   
     4     2     3 ar  
     5     2    12 1   
     6     3     4 1   
     7     3     5 ar  
     8     5     6 1   
     9     5     7 ar  
    10     6    13 1   
    11     7     8 ar  
    12     7    14 1   
    13     8    15 1   
    14     9    10 1   
    15     9    11 1   
@<TRIPOS>SUBSTRUCTURE
     1 IHB         1 TEMP              0 ****  ****    0 ROOT
