@<TRIPOS>MOLECULE
IHC
   42    45     1     0     0
SMALL
abcg2


@<TRIPOS>ATOM
      1 CL1          5.8270     0.3020    -2.0630 cl         1 IHC      -0.174000
      2 CL2          3.6840    -0.0050     2.8680 cl         1 IHC      -0.174000
      3 C1          -8.8190    -1.8050     0.7600 c          1 IHC       0.729000
      4 O1          -9.6600    -1.8150     1.6800 o          1 IHC      -0.709500
      5 C2          -7.4970    -1.1210     1.1470 c3         1 IHC       0.000600
      6 N2           1.2000    -0.8030    -1.2160 nb         1 IHC      -0.132000
      7 O2          -8.9310    -2.2670    -0.3840 o          1 IHC      -0.709500
      8 C3          -5.4030    -0.5240     0.1830 ca         1 IHC       0.174100
      9 N3           1.9010    -1.7430    -0.6390 nb         1 IHC      -0.236000
     10 O3          -6.5930    -1.1340     0.0570 os         1 IHC      -0.289100
     11 C4          -4.9590     0.0940     1.3630 ca         1 IHC      -0.190000
     12 N4           2.8740     0.8060    -0.7080 nb         1 IHC      -0.186000
     13 C5          -3.7200     0.7120     1.4200 ca         1 IHC      -0.046000
     14 N5          -2.4550     0.1620    -1.9400 nc         1 IHC      -0.523100
     15 C6          -2.9200     0.7130     0.2890 ca         1 IHC      -0.227000
     16 C7          -1.3970     0.8010    -1.5970 cd         1 IHC       0.372200
     17 C8          -0.2620     1.1110    -2.5250 c3         1 IHC       0.221500
     18 C9           1.6980     0.4360    -1.2370 ca         1 IHC       0.321900
     19 C10          3.0630    -1.4590    -0.0930 ca         1 IHC       0.178900
     20 C11          3.5580    -0.1490    -0.1330 cp         1 IHC       0.177500
     21 C12          4.8730     0.1860     0.4580 cp         1 IHC      -0.136500
     22 C13          5.9840     0.4250    -0.3470 ca         1 IHC       0.147500
     23 C14          7.2200     0.7390     0.1940 ca         1 IHC      -0.108500
     24 C15          7.3520     0.8170     1.5710 ca         1 IHC      -0.087000
     25 C16          6.2680     0.5840     2.4030 ca         1 IHC      -0.108500
     26 C17          5.0440     0.2700     1.8360 ca         1 IHC       0.147500
     27 C18         -3.3510     0.0920    -0.8950 ca         1 IHC       0.126400
     28 C19         -4.5930    -0.5280    -0.9480 ca         1 IHC      -0.119000
     29 S           -1.3460     1.3960     0.0430 ss         1 IHC      -0.028200
     30 H1           1.3650     2.3110    -1.8990 hn         1 IHC       0.511000
     31 H3          -7.7070    -0.0920     1.4630 h1         1 IHC       0.018200
     32 H4          -7.0690    -1.6410     2.0130 h1         1 IHC       0.018200
     33 H5          -5.5750     0.1010     2.2520 ha         1 IHC       0.126000
     34 H6          -3.3970     1.1840     2.3380 ha         1 IHC       0.108000
     35 H7          -0.5180     1.9990    -3.1040 h1         1 IHC       0.074200
     36 H8          -0.1500     0.2840    -3.2290 h1         1 IHC       0.074200
     37 H9           3.6080    -2.2690     0.3710 h4         1 IHC       0.041100
     38 H10          8.0680     0.9170    -0.4520 ha         1 IHC       0.134000
     39 H11          8.3120     1.0640     2.0030 ha         1 IHC       0.121000
     40 H12          6.3720     0.6480     3.4770 ha         1 IHC       0.134000
     41 H13         -4.9270    -1.0030    -1.8620 ha         1 IHC       0.147000
     42 N1           0.9600     1.3920    -1.8260 nu         1 IHC      -0.921100
@<TRIPOS>BOND
     1     1    22 1   
     2     2    26 1   
     3     3     4 1   
     4     3     5 1   
     5     3     7 1   
     6     5    10 1   
     7     5    31 1   
     8     5    32 1   
     9     6     9 ar  
    10     6    18 ar  
    11     8    10 1   
    12     8    11 ar  
    13     8    28 ar  
    14     9    19 ar  
    15    11    13 ar  
    16    11    33 1   
    17    12    18 ar  
    18    12    20 ar  
    19    13    15 ar  
    20    13    34 1   
    21    14    16 2   
    22    14    27 1   
    23    15    27 ar  
    24    15    29 1   
    25    16    17 1   
    26    16    29 1   
    27    17    35 1   
    28    17    36 1   
    29    17    42 1   
    30    18    42 1   
    31    19    20 ar  
    32    19    37 1   
    33    20    21 1   
    34    21    22 ar  
    35    21    26 ar  
    36    22    23 ar  
    37    23    24 ar  
    38    23    38 1   
    39    24    25 ar  
    40    24    39 1   
    41    25    26 ar  
    42    25    40 1   
    43    27    28 ar  
    44    28    41 1   
    45    30    42 1   
@<TRIPOS>SUBSTRUCTURE
     1 IHC         1 TEMP              0 ****  ****    0 ROOT
