@<TRIPOS>MOLECULE
IHC
   42    45     1     0     0
SMALL
No Charge or Current Charge


@<TRIPOS>ATOM
      1 Cl1          5.8670     0.5180    -1.9970 cl         1 IHC      -0.174000
      2 Cl2          3.4880    -0.5260     2.9170 cl         1 IHC      -0.174000
      3 C1          -8.3790    -2.3840     1.2230 c          1 IHC       0.729000
      4 O1          -9.2280    -2.4330     2.1040 o          1 IHC      -0.709500
      5 C2          -7.2540    -1.3180     1.3680 c3         1 IHC       0.000600
      6 N2           1.0790    -0.7960    -1.4160 nb         1 IHC      -0.132000
      7 O2          -8.3850    -3.1310     0.2510 o          1 IHC      -0.709500
      8 C3          -5.2280    -0.4760     0.2150 ca         1 IHC       0.174100
      9 N3           1.6750    -1.8080    -0.7510 nb         1 IHC      -0.236000
     10 O3          -6.3020    -1.3430     0.2760 os         1 IHC      -0.289100
     11 C4          -4.9800     0.4980     1.2140 ca         1 IHC      -0.190000
     12 N4           2.8440     0.7220    -0.8460 nb         1 IHC      -0.186000
     13 C5          -3.8700     1.3550     1.1000 ca         1 IHC      -0.046000
     14 N5          -2.3550     0.2320    -2.0570 nc         1 IHC      -0.523100
     15 C6          -3.0310     1.2190    -0.0140 ca         1 IHC      -0.227000
     16 C7          -1.4380     1.1860    -1.8120 cd         1 IHC       0.372200
     17 C8          -0.2890     1.4340    -2.7860 c3         1 IHC       0.221500
     18 C9           1.6750     0.4200    -1.4400 ca         1 IHC       0.321900
     19 C10          2.8520    -1.5660    -0.1300 ca         1 IHC       0.178900
     20 C11          3.4540    -0.2800    -0.1750 cp         1 IHC       0.177500
     21 C12          4.7490     0.0240     0.5040 cp         1 IHC      -0.136500
     22 C13          5.8980     0.4120    -0.2370 ca         1 IHC       0.147500
     23 C14          7.1110     0.6930     0.4140 ca         1 IHC      -0.108500
     24 C15          7.2060     0.5940     1.8100 ca         1 IHC      -0.087000
     25 C16          6.0830     0.2090     2.5580 ca         1 IHC      -0.108500
     26 C17          4.8670    -0.0750     1.9150 ca         1 IHC       0.147500
     27 C18         -3.2560     0.2740    -0.9980 ca         1 IHC       0.126400
     28 C19         -4.3610    -0.5820    -0.8890 ca         1 IHC      -0.119000
     29 S           -1.6050     2.1830    -0.3420 ss         1 IHC      -0.028200
     30 H1           1.5580     2.3500    -2.1220 hn         1 IHC       0.511000
     31 H3          -7.7350    -0.3340     1.4260 h1         1 IHC       0.018200
     32 H4          -6.7410    -1.5050     2.3200 h1         1 IHC       0.018200
     33 H5          -5.6320     0.6010     2.0750 ha         1 IHC       0.126000
     34 H6          -3.6700     2.1070     1.8600 ha         1 IHC       0.108000
     35 H7          -0.4780     2.3920    -3.2880 h1         1 IHC       0.074200
     36 H8          -0.3100     0.6550    -3.5600 h1         1 IHC       0.074200
     37 H9           3.3170    -2.3950     0.4000 h4         1 IHC       0.041100
     38 H10          7.9820     0.9840    -0.1690 ha         1 IHC       0.134000
     39 H11          8.1470     0.8130     2.3110 ha         1 IHC       0.121000
     40 H12          6.1520     0.1340     3.6410 ha         1 IHC       0.134000
     41 H13         -4.5490    -1.3280    -1.6560 ha         1 IHC       0.147000
     42 N1           1.0520     1.4590    -2.1250 nu         1 IHC      -0.921100
@<TRIPOS>BOND
     1     1    22 1   
     2     2    26 1   
     3     3     4 1   
     4     3     5 1   
     5     3     7 1   
     6     5    10 1   
     7     5    31 1   
     8     5    32 1   
     9     6     9 ar  
    10     6    18 ar  
    11     8    10 1   
    12     8    11 ar  
    13     8    28 ar  
    14     9    19 ar  
    15    11    13 ar  
    16    11    33 1   
    17    12    18 ar  
    18    12    20 ar  
    19    13    15 ar  
    20    13    34 1   
    21    14    16 2   
    22    14    27 1   
    23    15    27 ar  
    24    15    29 1   
    25    16    17 1   
    26    16    29 1   
    27    17    35 1   
    28    17    36 1   
    29    17    42 1   
    30    18    42 1   
    31    19    20 ar  
    32    19    37 1   
    33    20    21 1   
    34    21    22 ar  
    35    21    26 ar  
    36    22    23 ar  
    37    23    24 ar  
    38    23    38 1   
    39    24    25 ar  
    40    24    39 1   
    41    25    26 ar  
    42    25    40 1   
    43    27    28 ar  
    44    28    41 1   
    45    30    42 1   
@<TRIPOS>SUBSTRUCTURE
     1 IHC         1 TEMP              0 ****  ****    0 ROOT
