@<TRIPOS>MOLECULE
IHD
   50    49     1     0     0
SMALL
bcc


@<TRIPOS>ATOM
      1 C17         -1.8150    -5.8860    10.6540 c3         1 IHD      -0.088100
      2 C16         -0.7670    -5.9310     9.5500 c3         1 IHD      -0.075400
      3 C15         -1.3690    -5.8150     8.1550 c3         1 IHD      -0.075400
      4 C14         -0.3290    -5.8580     7.0440 c3         1 IHD      -0.074400
      5 C13         -0.9320    -5.7580     5.6480 c3         1 IHD      -0.074400
      6 C12          0.1100    -5.8050     4.5370 c3         1 IHD      -0.074400
      7 C11         -0.4930    -5.7190     3.1410 c3         1 IHD      -0.074400
      8 C10          0.5470    -5.7860     2.0290 c3         1 IHD      -0.074400
      9 C9          -0.0590    -5.7060     0.6330 c3         1 IHD      -0.074400
     10 C8           0.9720    -5.8300    -0.4820 c3         1 IHD      -0.074400
     11 C7           0.3610    -5.7530    -1.8750 c3         1 IHD      -0.074400
     12 C6           1.3700    -5.9940    -2.9910 c3         1 IHD      -0.074400
     13 C5           0.7530    -5.9250    -4.3830 c3         1 IHD      -0.075400
     14 C4           1.7430    -6.2660    -5.4910 c3         1 IHD      -0.077400
     15 C3           1.1090    -6.2000    -6.8800 c3         1 IHD      -0.074400
     16 C2           2.1180    -6.5910    -7.9350 c3         1 IHD       0.123500
     17 I1           1.2630    -6.5130    -9.9470 i          1 IHD      -0.305900
     18 H171        -2.5300    -6.7030    10.5500 hc         1 IHD       0.031367
     19 H172        -1.3620    -5.9660    11.6430 hc         1 IHD       0.031367
     20 H173        -2.3770    -4.9500    10.6240 hc         1 IHD       0.031367
     21 H161        -0.0410    -5.1260     9.6990 hc         1 IHD       0.036700
     22 H162        -0.1990    -6.8650     9.6200 hc         1 IHD       0.036700
     23 H151        -1.9400    -4.8820     8.0840 hc         1 IHD       0.036700
     24 H152        -2.0940    -6.6230     8.0070 hc         1 IHD       0.036700
     25 H141         0.2480    -6.7860     7.1220 hc         1 IHD       0.036700
     26 H142         0.3900    -5.0430     7.1870 hc         1 IHD       0.036700
     27 H131        -1.6510    -6.5730     5.5060 hc         1 IHD       0.037200
     28 H132        -1.5100    -4.8300     5.5670 hc         1 IHD       0.037200
     29 H121         0.8250    -4.9870     4.6750 hc         1 IHD       0.036700
     30 H122         0.6910    -6.7310     4.6240 hc         1 IHD       0.036700
     31 H111        -1.2160    -6.5320     3.0080 hc         1 IHD       0.037200
     32 H112        -1.0650    -4.7890     3.0500 hc         1 IHD       0.037200
     33 H101         1.2720    -4.9750     2.1590 hc         1 IHD       0.037200
     34 H102         1.1170    -6.7180     2.1230 hc         1 IHD       0.037200
     35 H91         -0.8080    -6.4970     0.5180 hc         1 IHD       0.037200
     36 H92         -0.6020    -4.7600     0.5280 hc         1 IHD       0.037200
     37 H81          1.5060    -6.7810    -0.3730 hc         1 IHD       0.037200
     38 H82          1.7280    -5.0450    -0.3700 hc         1 IHD       0.037200
     39 H71         -0.4440    -6.4930    -1.9560 hc         1 IHD       0.038200
     40 H72         -0.1130    -4.7750    -2.0120 hc         1 IHD       0.038200
     41 H61          2.1840    -5.2640    -2.9160 hc         1 IHD       0.037700
     42 H62          1.8320    -6.9770    -2.8500 hc         1 IHD       0.037700
     43 H51          0.3440    -4.9230    -4.5540 hc         1 IHD       0.039700
     44 H52         -0.0960    -6.6150    -4.4340 hc         1 IHD       0.039700
     45 H41          2.5950    -5.5800    -5.4470 hc         1 IHD       0.040200
     46 H42          2.1450    -7.2690    -5.3190 hc         1 IHD       0.040200
     47 H31          0.7400    -5.1900    -7.0680 hc         1 IHD       0.053700
     48 H32          0.2470    -6.8700    -6.9200 hc         1 IHD       0.053700
     49 H21          2.4680    -7.6140    -7.8170 h1         1 IHD       0.068700
     50 H22          2.9730    -5.9180    -7.9660 h1         1 IHD       0.068700
@<TRIPOS>BOND
     1     1     2 1   
     2     1    18 1   
     3     1    19 1   
     4     1    20 1   
     5     2     3 1   
     6     2    21 1   
     7     2    22 1   
     8     3     4 1   
     9     3    23 1   
    10     3    24 1   
    11     4     5 1   
    12     4    25 1   
    13     4    26 1   
    14     5     6 1   
    15     5    27 1   
    16     5    28 1   
    17     6     7 1   
    18     6    29 1   
    19     6    30 1   
    20     7     8 1   
    21     7    31 1   
    22     7    32 1   
    23     8     9 1   
    24     8    33 1   
    25     8    34 1   
    26     9    10 1   
    27     9    35 1   
    28     9    36 1   
    29    10    11 1   
    30    10    37 1   
    31    10    38 1   
    32    11    12 1   
    33    11    39 1   
    34    11    40 1   
    35    12    13 1   
    36    12    41 1   
    37    12    42 1   
    38    13    14 1   
    39    13    43 1   
    40    13    44 1   
    41    14    15 1   
    42    14    45 1   
    43    14    46 1   
    44    15    16 1   
    45    15    47 1   
    46    15    48 1   
    47    16    17 1   
    48    16    49 1   
    49    16    50 1   
@<TRIPOS>SUBSTRUCTURE
     1 IHD         1 TEMP              0 ****  ****    0 ROOT
