@<TRIPOS>MOLECULE
IHD
   50    49     1     0     0
SMALL
No Charge or Current Charge


@<TRIPOS>ATOM
      1 C17         -1.8020    -5.6390    10.7880 c3         1 IHD      -0.088100
      2 C16         -0.7610    -5.7940     9.6620 c3         1 IHD      -0.075400
      3 C15         -1.3790    -5.7020     8.2500 c3         1 IHD      -0.075400
      4 C14         -0.3350    -5.8580     7.1220 c3         1 IHD      -0.074400
      5 C13         -0.9540    -5.7660     5.7100 c3         1 IHD      -0.074400
      6 C12          0.0900    -5.9210     4.5820 c3         1 IHD      -0.074400
      7 C11         -0.5280    -5.8300     3.1700 c3         1 IHD      -0.074400
      8 C10          0.5150    -5.9860     2.0420 c3         1 IHD      -0.074400
      9 C9          -0.1030    -5.8940     0.6300 c3         1 IHD      -0.074400
     10 C8           0.9400    -6.0500    -0.4980 c3         1 IHD      -0.074400
     11 C7           0.3220    -5.9600    -1.9110 c3         1 IHD      -0.074400
     12 C6           1.3650    -6.1150    -3.0380 c3         1 IHD      -0.074400
     13 C5           0.7470    -6.0250    -4.4510 c3         1 IHD      -0.075400
     14 C4           1.7900    -6.1810    -5.5780 c3         1 IHD      -0.077400
     15 C3           1.1720    -6.0900    -6.9910 c3         1 IHD      -0.074400
     16 C2           2.2130    -6.2460    -8.1150 c3         1 IHD       0.117600
     17 I1           1.2940    -6.1120   -10.1550 i          1 IHD      -0.300000
     18 H171        -2.5630    -6.4250    10.7230 hc         1 IHD       0.031367
     19 H172        -1.3170    -5.7110    11.7690 hc         1 IHD       0.031367
     20 H173        -2.3010    -4.6650    10.7230 hc         1 IHD       0.031367
     21 H161         0.0050    -5.0160     9.7760 hc         1 IHD       0.036700
     22 H162        -0.2550    -6.7610     9.7760 hc         1 IHD       0.036700
     23 H151        -1.8860    -4.7350     8.1410 hc         1 IHD       0.036700
     24 H152        -2.1450    -6.4800     8.1410 hc         1 IHD       0.036700
     25 H141         0.1720    -6.8250     7.2310 hc         1 IHD       0.036700
     26 H142         0.4310    -5.0800     7.2310 hc         1 IHD       0.036700
     27 H131        -1.7200    -6.5430     5.6010 hc         1 IHD       0.037200
     28 H132        -1.4600    -4.7990     5.6010 hc         1 IHD       0.037200
     29 H121         0.8560    -5.1440     4.6910 hc         1 IHD       0.036700
     30 H122         0.5970    -6.8880     4.6910 hc         1 IHD       0.036700
     31 H111        -1.2950    -6.6080     3.0610 hc         1 IHD       0.037200
     32 H112        -1.0350    -4.8630     3.0600 hc         1 IHD       0.037200
     33 H101         1.2810    -5.2080     2.1500 hc         1 IHD       0.037200
     34 H102         1.0220    -6.9530     2.1510 hc         1 IHD       0.037200
     35 H91         -0.8700    -6.6720     0.5210 hc         1 IHD       0.037200
     36 H92         -0.6100    -4.9270     0.5200 hc         1 IHD       0.037200
     37 H81          1.4470    -7.0170    -0.3890 hc         1 IHD       0.037200
     38 H82          1.7060    -5.2720    -0.3900 hc         1 IHD       0.037200
     39 H71         -0.4450    -6.7380    -2.0190 hc         1 IHD       0.038200
     40 H72         -0.1860    -4.9930    -2.0200 hc         1 IHD       0.038200
     41 H61          2.1310    -5.3370    -2.9300 hc         1 IHD       0.037700
     42 H62          1.8730    -7.0820    -2.9290 hc         1 IHD       0.037700
     43 H51          0.2390    -5.0580    -4.5600 hc         1 IHD       0.039700
     44 H52         -0.0200    -6.8030    -4.5590 hc         1 IHD       0.039700
     45 H41          2.5560    -5.4020    -5.4700 hc         1 IHD       0.040200
     46 H42          2.2980    -7.1470    -5.4690 hc         1 IHD       0.040200
     47 H31          0.6660    -5.1240    -7.1060 hc         1 IHD       0.053700
     48 H32          0.4070    -6.8690    -7.1040 hc         1 IHD       0.053700
     49 H21          2.7040    -7.2260    -8.0660 h1         1 IHD       0.068700
     50 H22          2.9680    -5.4500    -8.0680 h1         1 IHD       0.068700
@<TRIPOS>BOND
     1     1     2 1   
     2     1    18 1   
     3     1    19 1   
     4     1    20 1   
     5     2     3 1   
     6     2    21 1   
     7     2    22 1   
     8     3     4 1   
     9     3    23 1   
    10     3    24 1   
    11     4     5 1   
    12     4    25 1   
    13     4    26 1   
    14     5     6 1   
    15     5    27 1   
    16     5    28 1   
    17     6     7 1   
    18     6    29 1   
    19     6    30 1   
    20     7     8 1   
    21     7    31 1   
    22     7    32 1   
    23     8     9 1   
    24     8    33 1   
    25     8    34 1   
    26     9    10 1   
    27     9    35 1   
    28     9    36 1   
    29    10    11 1   
    30    10    37 1   
    31    10    38 1   
    32    11    12 1   
    33    11    39 1   
    34    11    40 1   
    35    12    13 1   
    36    12    41 1   
    37    12    42 1   
    38    13    14 1   
    39    13    43 1   
    40    13    44 1   
    41    14    15 1   
    42    14    45 1   
    43    14    46 1   
    44    15    16 1   
    45    15    47 1   
    46    15    48 1   
    47    16    17 1   
    48    16    49 1   
    49    16    50 1   
@<TRIPOS>SUBSTRUCTURE
     1 IHD         1 TEMP              0 ****  ****    0 ROOT
