@<TRIPOS>MOLECULE
IHF
   20    20     1     0     0
SMALL
No Charge or Current Charge


@<TRIPOS>ATOM
      1 C01         50.1480    -3.3740    11.6240 c3         1 IHF      -0.091100
      2 C02         49.4940    -2.7980    12.8950 c3         1 IHF      -0.036200
      3 C03         48.9990    -1.3810    12.7100 cc         1 IHF       0.009400
      4 C04         47.7180    -0.9770    12.3860 cd         1 IHF      -0.057200
      5 C06         47.4220     0.5020    12.2470 c          1 IHF       0.581200
      6 C09         49.7690     0.9450    12.7830 c          1 IHF       0.617000
      7 N05         46.6450    -1.8410    12.1650 nv         1 IHF      -0.882000
      8 N08         48.5010     1.3090    12.4650 ns         1 IHF      -0.462500
      9 N11         49.9630    -0.4010    12.8920 ns         1 IHF      -0.511600
     10 O07         46.3270     0.9720    11.9630 o          1 IHF      -0.532000
     11 O10         50.6620     1.7500    12.9570 o          1 IHF      -0.561000
     12 H1          50.4840    -4.4030    11.7980 hc         1 IHF       0.045033
     13 H2          49.4320    -3.3820    10.7920 hc         1 IHF       0.045033
     14 H3          51.0160    -2.7740    11.3260 hc         1 IHF       0.045033
     15 H4          48.6670    -3.4510    13.1960 hc         1 IHF       0.052700
     16 H5          50.2190    -2.8410    13.7180 hc         1 IHF       0.052700
     17 H8          46.7590    -2.8530    12.2030 hn         1 IHF       0.440000
     18 H9          45.7260    -1.4750    11.9110 hn         1 IHF       0.440000
     19 H10         48.3360     2.2980    12.3800 hn         1 IHF       0.346500
     20 H6          50.9150    -0.6610    13.1290 hn         1 IHF       0.459000
@<TRIPOS>BOND
     1     1     2 1   
     2     1    12 1   
     3     1    13 1   
     4     1    14 1   
     5     2     3 1   
     6     2    15 1   
     7     2    16 1   
     8     3     4 2   
     9     3     9 1   
    10     4     5 1   
    11     4     7 1   
    12     5     8 1   
    13     5    10 2   
    14     6     8 1   
    15     6     9 1   
    16     6    11 2   
    17     7    17 1   
    18     7    18 1   
    19     8    19 1   
    20     9    20 1   
@<TRIPOS>SUBSTRUCTURE
     1 IHF         1 TEMP              0 ****  ****    0 ROOT
