@<TRIPOS>MOLECULE
IHF
   20    20     1     0     0
SMALL
bcc


@<TRIPOS>ATOM
      1 C01         50.0230    -3.3370    11.5770 c3         1 IHF      -0.091100
      2 C02         49.4910    -2.7660    12.8920 c3         1 IHF      -0.036200
      3 C03         49.0280    -1.3520    12.7390 cc         1 IHF       0.009400
      4 C04         47.7920    -1.0040    12.3140 cd         1 IHF      -0.057200
      5 C06         47.4760     0.4080    12.1530 c          1 IHF       0.723700
      6 C09         49.7760     0.9580    12.8570 c          1 IHF       0.826500
      7 N05         46.7960    -1.9030    11.9380 nv         1 IHF      -0.771600
      8 N08         48.5050     1.2780    12.4420 ns         1 IHF      -0.596500
      9 N11         49.9750    -0.3770    12.9900 ns         1 IHF      -0.465100
     10 O07         46.3870     0.8210    11.7930 o          1 IHF      -0.607500
     11 O10         50.6260     1.7990    13.0850 o          1 IHF      -0.636500
     12 H1          50.3530    -4.3660    11.7170 hc         1 IHF       0.045033
     13 H2          49.2520    -3.3320    10.8070 hc         1 IHF       0.045033
     14 H3          50.8720    -2.7590    11.2120 hc         1 IHF       0.045033
     15 H4          48.6730    -3.3870    13.2600 hc         1 IHF       0.052700
     16 H5          50.2680    -2.8150    13.6590 hc         1 IHF       0.052700
     17 H8          46.8410    -2.7920    12.4120 hn         1 IHF       0.384800
     18 H9          45.8710    -1.5130    12.0500 hn         1 IHF       0.384800
     19 H10         48.3080     2.2650    12.3360 hn         1 IHF       0.346500
     20 H6          50.8900    -0.6650    13.3070 hn         1 IHF       0.345500
@<TRIPOS>BOND
     1     1     2 1   
     2     1    12 1   
     3     1    13 1   
     4     1    14 1   
     5     2     3 1   
     6     2    15 1   
     7     2    16 1   
     8     3     4 2   
     9     3     9 1   
    10     4     5 1   
    11     4     7 1   
    12     5     8 1   
    13     5    10 2   
    14     6     8 1   
    15     6     9 1   
    16     6    11 2   
    17     7    17 1   
    18     7    18 1   
    19     8    19 1   
    20     9    20 1   
@<TRIPOS>SUBSTRUCTURE
     1 IHF         1 TEMP              0 ****  ****    0 ROOT
