@<TRIPOS>MOLECULE
IHG
   19    18     1     0     0
SMALL
bcc


@<TRIPOS>ATOM
      1 C1          -0.9920     0.4620     2.7740 c3         1 IHG      -0.110600
      2 C2           0.0590     0.2600     1.6920 c3         1 IHG       0.236500
      3 C3           1.0460    -0.8400     2.0720 c3         1 IHG      -0.110600
      4 NE          -0.6140    -0.0160     0.4340 nu         1 IHG      -0.853200
      5 CZ           0.0290     0.1160    -0.7620 c2         1 IHG       0.765100
      6 NH1         -0.7370    -0.3950    -1.8200 nu         1 IHG      -0.618700
      7 NH2          1.1410     0.7300    -0.8740 n2         1 IHG      -0.862100
      8 OH          -0.0180    -0.5650    -2.9900 oh         1 IHG      -0.406300
      9 H11         -0.5190     0.6940     3.7270 hc         1 IHG       0.040200
     10 H12         -1.6690     1.2800     2.5250 hc         1 IHG       0.040200
     11 H13         -1.5900    -0.4420     2.9150 hc         1 IHG       0.040200
     12 H21          0.6100     1.1920     1.5590 h1         1 IHG       0.086700
     13 H31          0.5310    -1.7940     2.2040 hc         1 IHG       0.040200
     14 H32          1.8090    -0.9640     1.3040 hc         1 IHG       0.040200
     15 H33          1.5500    -0.5990     3.0100 hc         1 IHG       0.040200
     16 HE1         -1.3510    -0.7030     0.4860 hn         1 IHG       0.411800
     17 HH11        -1.2020    -1.2690    -1.6020 hn         1 IHG       0.394800
     18 HH21         1.4330     0.7520    -1.8430 hn         1 IHG       0.397400
     19 HH1         -0.4060     0.0610    -3.6110 ho         1 IHG       0.427000
@<TRIPOS>BOND
     1     1     2 1   
     2     1     9 1   
     3     1    10 1   
     4     1    11 1   
     5     2     3 1   
     6     2     4 1   
     7     2    12 1   
     8     3    13 1   
     9     3    14 1   
    10     3    15 1   
    11     4     5 1   
    12     4    16 1   
    13     5     6 1   
    14     5     7 2   
    15     6     8 1   
    16     6    17 1   
    17     7    18 1   
    18     8    19 1   
@<TRIPOS>SUBSTRUCTURE
     1 IHG         1 TEMP              0 ****  ****    0 ROOT
