@<TRIPOS>MOLECULE
IHG
   19    18     1     0     0
SMALL
No Charge or Current Charge


@<TRIPOS>ATOM
      1 C1          -1.0210     0.4380     2.7550 c3         1 IHG      -0.110600
      2 C2           0.1160     0.2160     1.7390 c3         1 IHG       0.236500
      3 C3           1.0870    -0.8920     2.1960 c3         1 IHG      -0.110600
      4 NE          -0.4660    -0.1390     0.4390 nu         1 IHG      -0.908400
      5 CZ           0.1110     0.0830    -0.7570 c2         1 IHG       0.765100
      6 NH1         -0.6420    -0.3830    -1.7960 nu         1 IHG      -0.673900
      7 NH2          1.1530     0.7620    -0.9270 n2         1 IHG      -0.862100
      8 OH          -0.0250    -0.3410    -3.1440 oh         1 IHG      -0.445300
      9 H11         -0.6100     0.7230     3.7310 hc         1 IHG       0.040200
     10 H12         -1.6860     1.2440     2.4210 hc         1 IHG       0.040200
     11 H13         -1.6160    -0.4730     2.8870 hc         1 IHG       0.040200
     12 H21          0.6770     1.1600     1.6610 h1         1 IHG       0.086700
     13 H31          0.5680    -1.8520     2.2970 hc         1 IHG       0.040200
     14 H32          1.9040    -1.0150     1.4750 hc         1 IHG       0.040200
     15 H33          1.5300    -0.6370     3.1660 hc         1 IHG       0.040200
     16 HE1         -1.4700    -0.2700     0.3990 hn         1 IHG       0.467000
     17 HH11        -1.0210    -1.3130    -1.6060 hn         1 IHG       0.450000
     18 HH21         1.2650     0.7640    -1.9490 hn         1 IHG       0.397400
     19 HH1         -0.7450    -0.1160    -3.7870 ho         1 IHG       0.466000
@<TRIPOS>BOND
     1     1     2 1   
     2     1     9 1   
     3     1    10 1   
     4     1    11 1   
     5     2     3 1   
     6     2     4 1   
     7     2    12 1   
     8     3    13 1   
     9     3    14 1   
    10     3    15 1   
    11     4     5 1   
    12     4    16 1   
    13     5     6 1   
    14     5     7 2   
    15     6     8 1   
    16     6    17 1   
    17     7    18 1   
    18     8    19 1   
@<TRIPOS>SUBSTRUCTURE
     1 IHG         1 TEMP              0 ****  ****    0 ROOT
