@<TRIPOS>MOLECULE
IHH
   48    52     1     0     0
SMALL
abcg2


@<TRIPOS>ATOM
      1 C1           0.8680    -5.2750     0.1630 ca         1 IHH      -0.138000
      2 C2          -0.5330    -5.2560     0.2390 ca         1 IHH      -0.071000
      3 C3          -1.2170    -4.0670     0.2630 ca         1 IHH      -0.113000
      4 C4           1.5640    -4.0920     0.1110 ca         1 IHH      -0.060000
      5 C5           0.8840    -2.8630     0.1330 ca         1 IHH      -0.204000
      6 C6          -0.5230    -2.8410     0.2110 ca         1 IHH       0.092000
      7 C8          -0.5420    -0.5800     0.1900 ca         1 IHH       0.429900
      8 C10          1.5120    -1.5640     0.0810 ca         1 IHH       0.448900
      9 C12         -2.5010     0.9840     0.2780 ca         1 IHH       0.334000
     10 C13         -2.7930     2.3540     0.3180 ca         1 IHH      -0.157000
     11 C14         -4.0980     2.8020     0.3790 ca         1 IHH      -0.065500
     12 C15         -5.1600     1.9030     0.4020 ca         1 IHH      -0.129300
     13 C28          5.8640     3.7010    -1.0490 cx         1 IHH      -0.122900
     14 C29          6.0790     3.6750     0.4270 cx         1 IHH      -0.122900
     15 C27          4.8030     3.1230    -0.1490 cx         1 IHH      -0.072400
     16 C24          4.5180     1.6830    -0.1350 cc         1 IHH      -0.093300
     17 C23          3.3040     1.0340    -0.0190 cd         1 IHH      -0.209000
     18 N25          5.4470     0.7200    -0.2450 na         1 IHH       0.000800
     19 N26          4.9380    -0.5140    -0.2110 nc         1 IHH      -0.579800
     20 C22          3.6380    -0.3330    -0.0740 cd         1 IHH       0.500900
     21 N21          2.8530    -1.4760    -0.0020 nu         1 IHH      -0.880800
     22 N9           0.8020    -0.4660     0.1120 nb         1 IHH      -0.325000
     23 N7          -1.2340    -1.6850     0.2380 nb         1 IHH      -0.270000
     24 N11         -1.1610     0.6370     0.2160 nu         1 IHH      -0.928900
     25 C17         -3.5650     0.0790     0.3020 ca         1 IHH      -0.157000
     26 C16         -4.8700     0.5470     0.3620 ca         1 IHH      -0.065500
     27 C18         -6.5870     2.3920     0.4560 c3         1 IHH       0.041000
     28 C19         -7.0720     2.7670    -0.8660 c1         1 IHH       0.301900
     29 N20         -7.4440     3.0580    -1.9150 n1         1 IHH      -0.465000
     30 H1           1.3990    -6.2160     0.1440 ha         1 IHH       0.118000
     31 H2          -1.0790    -6.1900     0.2810 ha         1 IHH       0.117000
     32 H3          -2.2970    -4.0460     0.3210 ha         1 IHH       0.132000
     33 H4           2.6450    -4.1380     0.0540 ha         1 IHH       0.107000
     34 H13         -1.9850     3.0760     0.3060 ha         1 IHH       0.133500
     35 H14         -4.2840     3.8690     0.4120 ha         1 IHH       0.113500
     36 H28A         6.4340     3.0160    -1.6630 hc         1 IHH       0.075700
     37 H29          6.8000     2.9740     0.8300 hc         1 IHH       0.075700
     38 H29A         6.0140     4.6050     0.9760 hc         1 IHH       0.075700
     39 H27          3.9150     3.7280    -0.0120 hc         1 IHH       0.098700
     40 H23          2.3350     1.4830     0.0890 ha         1 IHH       0.165000
     41 HN11        -0.5140     1.4090     0.1810 hn         1 IHH       0.508000
     42 H17         -3.3780    -0.9820     0.2780 ha         1 IHH       0.133500
     43 H16         -5.6770    -0.1760     0.3780 ha         1 IHH       0.113500
     44 H18         -7.2520     1.6220     0.8510 hc         1 IHH       0.072700
     45 H18A        -6.6860     3.2600     1.1090 hc         1 IHH       0.072700
     46 H181         6.4440     0.8290    -0.3430 hn         1 IHH       0.373000
     47 H19          3.3830    -2.3320    -0.0390 hn         1 IHH       0.517000
     48 H28          5.6460     4.6490    -1.5230 hc         1 IHH       0.075700
@<TRIPOS>BOND
     1     1     2 ar  
     2     1     4 ar  
     3     1    30 1   
     4     2     3 ar  
     5     2    31 1   
     6     3     6 ar  
     7     3    32 1   
     8     4     5 ar  
     9     4    33 1   
    10     5     6 ar  
    11     5     8 ar  
    12     6    23 ar  
    13     7    22 ar  
    14     7    23 ar  
    15     7    24 1   
    16     8    21 1   
    17     8    22 ar  
    18     9    10 ar  
    19     9    24 1   
    20     9    25 ar  
    21    10    11 ar  
    22    10    34 1   
    23    11    12 ar  
    24    11    35 1   
    25    12    26 ar  
    26    12    27 1   
    27    13    14 1   
    28    13    15 1   
    29    13    36 1   
    30    13    48 1   
    31    14    15 1   
    32    14    37 1   
    33    14    38 1   
    34    15    16 1   
    35    15    39 1   
    36    16    17 2   
    37    16    18 1   
    38    17    20 1   
    39    17    40 1   
    40    18    19 1   
    41    18    46 1   
    42    19    20 2   
    43    20    21 1   
    44    21    47 1   
    45    24    41 1   
    46    25    26 ar  
    47    25    42 1   
    48    26    43 1   
    49    27    28 1   
    50    27    44 1   
    51    27    45 1   
    52    28    29 3   
@<TRIPOS>SUBSTRUCTURE
     1 IHH         1 TEMP              0 ****  ****    0 ROOT
