@<TRIPOS>MOLECULE
IHH
   48    52     1     0     0
SMALL
No Charge or Current Charge


@<TRIPOS>ATOM
      1 C1           0.9330    -5.2460     0.2020 ca         1 IHH      -0.138000
      2 C2          -0.4660    -5.2810     0.2880 ca         1 IHH      -0.071000
      3 C3          -1.1940    -4.0820     0.3460 ca         1 IHH      -0.113000
      4 C4           1.6090    -4.0150     0.1760 ca         1 IHH      -0.060000
      5 C5           0.8790    -2.8040     0.2370 ca         1 IHH      -0.204000
      6 C6          -0.5350    -2.8390     0.3200 ca         1 IHH       0.092000
      7 C8          -0.5560    -0.5420     0.3400 ca         1 IHH       0.429900
      8 C10          1.4940    -1.5280     0.2160 ca         1 IHH       0.448900
      9 C12         -2.6040     1.0090     0.4030 ca         1 IHH       0.334000
     10 C13         -2.9960     2.2020     1.0300 ca         1 IHH      -0.157000
     11 C14         -4.3410     2.6100     1.0190 ca         1 IHH      -0.065500
     12 C15         -5.3130     1.8290     0.3660 ca         1 IHH      -0.129300
     13 C28          6.1140     3.5200    -1.3210 cx         1 IHH      -0.122900
     14 C29          6.0410     3.7900     0.1650 cx         1 IHH      -0.122900
     15 C27          4.8930     3.0990    -0.5360 cx         1 IHH      -0.072400
     16 C24          4.6350     1.6670    -0.2880 cc         1 IHH      -0.093300
     17 C23          3.4470     0.9940    -0.2260 cd         1 IHH      -0.209000
     18 N25          5.5710     0.6470    -0.0610 na         1 IHH       0.000800
     19 N26          5.0110    -0.6120     0.1330 nc         1 IHH      -0.579800
     20 C22          3.7370    -0.3550     0.0330 cd         1 IHH       0.500900
     21 N21          2.8780    -1.3900     0.1620 nu         1 IHH      -0.880800
     22 N9           0.7700    -0.4020     0.2770 nb         1 IHH      -0.325000
     23 N7          -1.2420    -1.6950     0.3760 nb         1 IHH      -0.270000
     24 N11         -1.2510     0.6530     0.4300 nu         1 IHH      -0.928900
     25 C17         -3.5740     0.2370    -0.2630 ca         1 IHH      -0.157000
     26 C16         -4.9210     0.6410    -0.2790 ca         1 IHH      -0.065500
     27 C18         -6.7750     2.2700     0.3500 c3         1 IHH       0.041000
     28 C19         -7.0680     3.1220    -0.8110 c1         1 IHH       0.301900
     29 N20         -7.3260     3.8000    -1.7230 n1         1 IHH      -0.465000
     30 H1           1.4970    -6.1760     0.1550 ha         1 IHH       0.118000
     31 H2          -0.9880    -6.2360     0.3080 ha         1 IHH       0.117000
     32 H3          -2.2790    -4.1160     0.4110 ha         1 IHH       0.132000
     33 H4           2.6930    -4.0230     0.1060 ha         1 IHH       0.107000
     34 H13         -2.2580     2.8160     1.5390 ha         1 IHH       0.133500
     35 H14         -4.6250     3.5350     1.5170 ha         1 IHH       0.113500
     36 H28A         6.7990     2.7490    -1.6660 hc         1 IHH       0.075700
     37 H29          6.6770     3.2000     0.8210 hc         1 IHH       0.075700
     38 H29A         5.8900     4.8180     0.4860 hc         1 IHH       0.075700
     39 H27          3.9850     3.6800    -0.6860 hc         1 IHH       0.098700
     40 H23          2.4670     1.4300    -0.3620 ha         1 IHH       0.165000
     41 HN11        -0.6300     1.4330     0.6340 hn         1 IHH       0.508000
     42 H17         -3.2930    -0.6690    -0.7890 ha         1 IHH       0.133500
     43 H16         -5.6570     0.0310    -0.7990 ha         1 IHH       0.113500
     44 H18         -7.4440     1.4020     0.3220 hc         1 IHH       0.072700
     45 H18A        -7.0250     2.8260     1.2610 hc         1 IHH       0.072700
     46 H181         6.5810     0.7770    -0.0380 hn         1 IHH       0.373000
     47 H19          3.3860    -2.2590     0.2590 hn         1 IHH       0.517000
     48 H28          6.0120     4.3680    -1.9950 hc         1 IHH       0.075700
@<TRIPOS>BOND
     1     1     2 ar  
     2     1     4 ar  
     3     1    30 1   
     4     2     3 ar  
     5     2    31 1   
     6     3     6 ar  
     7     3    32 1   
     8     4     5 ar  
     9     4    33 1   
    10     5     6 ar  
    11     5     8 ar  
    12     6    23 ar  
    13     7    22 ar  
    14     7    23 ar  
    15     7    24 1   
    16     8    21 1   
    17     8    22 ar  
    18     9    10 ar  
    19     9    24 1   
    20     9    25 ar  
    21    10    11 ar  
    22    10    34 1   
    23    11    12 ar  
    24    11    35 1   
    25    12    26 ar  
    26    12    27 1   
    27    13    14 1   
    28    13    15 1   
    29    13    36 1   
    30    13    48 1   
    31    14    15 1   
    32    14    37 1   
    33    14    38 1   
    34    15    16 1   
    35    15    39 1   
    36    16    17 2   
    37    16    18 1   
    38    17    20 1   
    39    17    40 1   
    40    18    19 1   
    41    18    46 1   
    42    19    20 2   
    43    20    21 1   
    44    21    47 1   
    45    24    41 1   
    46    25    26 ar  
    47    25    42 1   
    48    26    43 1   
    49    27    28 1   
    50    27    44 1   
    51    27    45 1   
    52    28    29 3   
@<TRIPOS>SUBSTRUCTURE
     1 IHH         1 TEMP              0 ****  ****    0 ROOT
