@<TRIPOS>MOLECULE
IHL
   44    47     1     0     0
SMALL
No Charge or Current Charge


@<TRIPOS>ATOM
      1 C01         90.9870    -8.2840    16.8090 cc         1 IHL      -0.260300
      2 C02         89.6980    -8.8780    16.4960 cc         1 IHL      -0.049000
      3 C04         92.0610    -8.3760    15.9120 cd         1 IHL      -0.001000
      4 C05         91.1080    -7.5700    18.1410 c3         1 IHL       0.374300
      5 N09         91.8020    -9.0630    14.7250 na         1 IHL       0.280400
      6 C10         90.5890    -9.6220    14.4330 cd         1 IHL      -0.045000
      7 C15         93.1620   -11.8340    11.6830 c3         1 IHL      -0.102700
      8 C16         93.7060   -12.3260    10.3680 cc         1 IHL       0.451800
      9 C18         93.9490   -13.2120     8.4900 cd         1 IHL       0.811900
     10 C23         92.2990   -14.5860     7.1780 c5         1 IHL       0.242300
     11 C24         92.5900   -15.5020     5.9610 c5         1 IHL      -0.096900
     12 C25         93.5450   -14.6090     5.1250 c5         1 IHL      -0.096900
     13 C26         94.5280   -14.1060     6.2140 c5         1 IHL       0.242300
     14 C03         89.4760    -9.5520    15.3150 cd         1 IHL      -0.093000
     15 F06         90.8590    -8.4060    19.1730 f          1 IHL      -0.108333
     16 F07         92.3410    -7.0520    18.3400 f          1 IHL      -0.108333
     17 F08         90.2290    -6.5460    18.2320 f          1 IHL      -0.108333
     18 N11         90.6690   -10.1940    13.2550 nc         1 IHL      -0.389300
     19 C12         91.9720    -9.9340    12.8970 cc         1 IHL       0.540300
     20 N13         92.7270    -9.2480    13.7490 nd         1 IHL      -0.590100
     21 C14         92.4980   -10.4380    11.5820 c3         1 IHL      -0.078700
     22 N17         93.0360   -13.0470     9.4920 nd         1 IHL      -0.756000
     23 N19         95.1330   -12.6570     8.6500 nc         1 IHL      -0.619800
     24 N20         94.9730   -12.0790     9.8710 na         1 IHL      -0.061700
     25 N22         93.6140   -13.9320     7.3650 nh         1 IHL      -0.798300
     26 H27         88.8880    -8.7870    17.2160 ha         1 IHL       0.142000
     27 H29         93.0560    -7.9710    16.0480 h4         1 IHL       0.180000
     28 H32         93.9670   -11.8010    12.4270 hc         1 IHL       0.067700
     29 H33         92.4270   -12.5540    12.0620 hc         1 IHL       0.067700
     30 H34         96.9100   -11.2190     9.8150 h1         1 IHL       0.054367
     31 H35         95.6990   -10.3070    10.7620 h1         1 IHL       0.054367
     32 H36         96.3890   -11.8230    11.4150 h1         1 IHL       0.054367
     33 H37         91.9800   -15.1660     8.0560 h1         1 IHL       0.048700
     34 H38         91.5200   -13.8450     6.9480 h1         1 IHL       0.048700
     35 H39         93.0820   -16.4310     6.2720 hc         1 IHL       0.051450
     36 H40         91.6780   -15.7770     5.4180 hc         1 IHL       0.051450
     37 H41         94.0550   -15.1590     4.3260 hc         1 IHL       0.051450
     38 H42         93.0070   -13.7740     4.6600 hc         1 IHL       0.051450
     39 H44         95.0230   -13.1710     5.9150 h1         1 IHL       0.048700
     40 H43         95.3020   -14.8540     6.4360 h1         1 IHL       0.048700
     41 H28         88.5160    -9.9990    15.0740 ha         1 IHL       0.156000
     42 H31         91.6790   -10.4800    10.8540 hc         1 IHL       0.081200
     43 H30         93.2230    -9.7170    11.1870 hc         1 IHL       0.081200
     44 C21         96.0600   -11.3100    10.5030 c3         1 IHL       0.078900
@<TRIPOS>BOND
     1     1     2 1   
     2     1     3 2   
     3     1     4 1   
     4     2    14 2   
     5     2    26 1   
     6     3     5 1   
     7     3    27 1   
     8     4    15 1   
     9     4    16 1   
    10     4    17 1   
    11     5     6 1   
    12     5    20 1   
    13     6    14 1   
    14     6    18 2   
    15     7     8 1   
    16     7    21 1   
    17     7    28 1   
    18     7    29 1   
    19     8    22 2   
    20     8    24 1   
    21     9    22 1   
    22     9    23 2   
    23     9    25 1   
    24    10    11 1   
    25    10    25 1   
    26    10    33 1   
    27    10    34 1   
    28    11    12 1   
    29    11    35 1   
    30    11    36 1   
    31    12    13 1   
    32    12    37 1   
    33    12    38 1   
    34    13    25 1   
    35    13    39 1   
    36    13    40 1   
    37    14    41 1   
    38    18    19 1   
    39    19    20 2   
    40    19    21 1   
    41    21    42 1   
    42    21    43 1   
    43    23    24 1   
    44    24    44 1   
    45    30    44 1   
    46    31    44 1   
    47    32    44 1   
@<TRIPOS>SUBSTRUCTURE
     1 IHL         1 TEMP              0 ****  ****    0 ROOT
