@<TRIPOS>MOLECULE
IHL
   44    47     1     0     0
SMALL
bcc


@<TRIPOS>ATOM
      1 C01         90.8720    -8.1060    16.5830 cc         1 IHL      -0.260300
      2 C02         90.1180    -9.2870    16.8110 cc         1 IHL      -0.067000
      3 C04         91.5700    -7.9480    15.4260 cd         1 IHL       0.031700
      4 C05         90.8920    -7.0400    17.6260 c3         1 IHL       0.738200
      5 N09         91.5220    -8.9450    14.5190 na         1 IHL       0.179000
      6 C10         90.8170   -10.1100    14.6900 cd         1 IHL       0.005700
      7 C15         93.2620   -11.8230    11.7480 c3         1 IHL      -0.102700
      8 C16         93.7910   -12.3340    10.4550 cc         1 IHL       0.451800
      9 C18         93.9260   -13.1230     8.5160 cd         1 IHL       0.811900
     10 C23         92.1910   -13.9720     6.9870 c5         1 IHL       0.242300
     11 C24         92.3590   -14.9440     5.8230 c5         1 IHL      -0.096900
     12 C25         93.6550   -14.4840     5.1600 c5         1 IHL      -0.096900
     13 C26         94.5280   -14.0810     6.3440 c5         1 IHL       0.242300
     14 C03         90.0850   -10.2800    15.8800 cd         1 IHL      -0.111000
     15 F06         91.3320    -7.5100    18.7990 f          1 IHL      -0.229633
     16 F07         91.6790    -6.0170    17.2900 f          1 IHL      -0.229633
     17 F08         89.6660    -6.5480    17.8460 f          1 IHL      -0.229633
     18 N11         90.9940   -10.8710    13.6250 nc         1 IHL      -0.389300
     19 C12         91.8080   -10.1360    12.8450 cc         1 IHL       0.540300
     20 N13         92.1550    -8.9630    13.3400 nd         1 IHL      -0.590100
     21 C14         92.3270   -10.6250    11.5400 c3         1 IHL      -0.078700
     22 N17         93.0290   -12.7540     9.4610 nd         1 IHL      -0.756000
     23 N19         95.1880   -12.9530     8.8680 nc         1 IHL      -0.619800
     24 N20         95.0760   -12.4390    10.1160 na         1 IHL      -0.032400
     25 N22         93.5590   -13.6150     7.3150 nh         1 IHL      -0.798300
     26 H27         89.5640    -9.4040    17.7330 ha         1 IHL       0.160000
     27 H29         92.1690    -7.0890    15.1620 h4         1 IHL       0.198000
     28 H32         94.0720   -11.5400    12.4190 hc         1 IHL       0.067700
     29 H33         92.7150   -12.6280    12.2430 hc         1 IHL       0.067700
     30 H34         96.8700   -11.3980    10.2760 h1         1 IHL       0.054367
     31 H35         96.0170   -11.6610    11.7990 h1         1 IHL       0.054367
     32 H36         96.8650   -13.0050    11.0270 h1         1 IHL       0.054367
     33 H37         91.6790   -14.4270     7.8380 h1         1 IHL       0.048700
     34 H38         91.6090   -13.0920     6.6890 h1         1 IHL       0.048700
     35 H39         92.4730   -15.9630     6.2020 hc         1 IHL       0.051450
     36 H40         91.5030   -14.9350     5.1490 hc         1 IHL       0.051450
     37 H41         94.1210   -15.2560     4.5480 hc         1 IHL       0.051450
     38 H42         93.4670   -13.6200     4.5180 hc         1 IHL       0.051450
     39 H44         95.2460   -13.2980     6.0880 h1         1 IHL       0.048700
     40 H43         95.1000   -14.9350     6.7270 h1         1 IHL       0.048700
     41 H28         89.5190   -11.1880    16.0340 ha         1 IHL       0.174000
     42 H31         91.4920   -10.9210    10.9030 hc         1 IHL       0.081200
     43 H30         92.8570    -9.8170    11.0370 hc         1 IHL       0.081200
     44 C21         96.2730   -12.1090    10.8450 c3         1 IHL       0.049600
@<TRIPOS>BOND
     1     1     2 1   
     2     1     3 2   
     3     1     4 1   
     4     2    14 2   
     5     2    26 1   
     6     3     5 1   
     7     3    27 1   
     8     4    15 1   
     9     4    16 1   
    10     4    17 1   
    11     5     6 1   
    12     5    20 1   
    13     6    14 1   
    14     6    18 2   
    15     7     8 1   
    16     7    21 1   
    17     7    28 1   
    18     7    29 1   
    19     8    22 2   
    20     8    24 1   
    21     9    22 1   
    22     9    23 2   
    23     9    25 1   
    24    10    11 1   
    25    10    25 1   
    26    10    33 1   
    27    10    34 1   
    28    11    12 1   
    29    11    35 1   
    30    11    36 1   
    31    12    13 1   
    32    12    37 1   
    33    12    38 1   
    34    13    25 1   
    35    13    39 1   
    36    13    40 1   
    37    14    41 1   
    38    18    19 1   
    39    19    20 2   
    40    19    21 1   
    41    21    42 1   
    42    21    43 1   
    43    23    24 1   
    44    24    44 1   
    45    30    44 1   
    46    31    44 1   
    47    32    44 1   
@<TRIPOS>SUBSTRUCTURE
     1 IHL         1 TEMP              0 ****  ****    0 ROOT
