@<TRIPOS>MOLECULE
IHM
   67    71     1     0     0
SMALL
abcg2


@<TRIPOS>ATOM
      1 C01         -2.4950     1.5060     0.6200 ca         1 IHM       0.055100
      2 C02         -1.1980     1.6050     1.0870 ca         1 IHM      -0.076000
      3 C03         -0.1400     1.1110     0.3350 ca         1 IHM      -0.115000
      4 C04         -0.3860     0.5420    -0.9060 ca         1 IHM      -0.074300
      5 C05         -1.6890     0.4760    -1.3870 ca         1 IHM      -0.191000
      6 C06         -2.7600     0.9320    -0.6280 ca         1 IHM       0.154100
      7 O07         -3.5540     2.0140     1.3470 os         1 IHM      -0.372100
      8 C08         -4.0780     1.2350     2.3240 c3         1 IHM       0.384300
      9 F09         -4.3780    -0.0020     1.8720 f          1 IHM      -0.136500
     10 F10         -3.1850     1.0430     3.3280 f          1 IHM      -0.136500
     11 O11         -4.0410     0.8630    -1.0160 os         1 IHM      -0.325100
     12 C12         -4.3760    -0.0850    -2.0260 c3         1 IHM       0.193600
     13 C13         -5.8600    -0.2520    -2.0560 cx         1 IHM      -0.144700
     14 C14         -6.4130    -1.6220    -2.3190 cx         1 IHM      -0.118900
     15 C15         -6.5300    -1.0150    -0.9570 cx         1 IHM      -0.118900
     16 C16          0.7050    -0.0990    -1.7330 c3         1 IHM       0.152600
     17 O17         -3.8390    -4.3020    -1.9790 o          1 IHM      -0.615700
     18 C18          2.2730     1.6400    -2.5850 cc         1 IHM      -0.168000
     19 C19          3.4750     2.1460    -2.1620 cd         1 IHM      -0.211000
     20 C20          3.7890     1.3990    -1.0070 cd         1 IHM       0.303500
     21 N21          2.8370     0.5100    -0.7580 nc         1 IHM      -0.518800
     22 N22          1.9370     0.6640    -1.7190 na         1 IHM       0.132800
     23 C23          4.9750     1.5030    -0.1520 ca         1 IHM      -0.087500
     24 C24          5.1770     0.5730     0.8710 ca         1 IHM      -0.111000
     25 C25          6.3060     0.6560     1.6810 ca         1 IHM      -0.023000
     26 C26          7.2340     1.6790     1.4590 ca         1 IHM      -0.166000
     27 C27          7.0270     2.5980     0.4490 ca         1 IHM      -0.086000
     28 C28          5.9030     2.5200    -0.3590 ca         1 IHM      -0.124000
     29 N29          6.5980    -0.2330     2.7200 ns         1 IHM      -0.149000
     30 C30          5.8860    -1.2910     3.1870 c          1 IHM       0.608100
     31 O31          4.8180    -1.6500     2.7240 o          1 IHM      -0.579100
     32 C32          0.9580    -1.5560    -1.3020 c3         1 IHM      -0.028100
     33 C33          6.5180    -1.9790     4.3700 c3         1 IHM      -0.183100
     34 C34         -0.2920    -2.3680    -1.4600 ca         1 IHM      -0.100300
     35 C35         -0.6800    -2.8680    -2.6970 ca         1 IHM      -0.078500
     36 C36         -1.8790    -3.5250    -2.8550 ca         1 IHM      -0.218000
     37 N37         -2.7240    -3.7100    -1.8130 na         1 IHM       0.555000
     38 C38         -2.3570    -3.2510    -0.5940 ca         1 IHM      -0.167300
     39 C39         -1.1670    -2.5880    -0.4030 ca         1 IHM      -0.078500
     40 H1          -1.0060     2.0720     2.0430 ha         1 IHM       0.137000
     41 H2           0.8650     1.1750     0.7290 ha         1 IHM       0.144000
     42 H3          -1.8650     0.0530    -2.3680 ha         1 IHM       0.119000
     43 H4          -4.9690     1.7190     2.7170 h3         1 IHM       0.105700
     44 H5          -4.0060     0.2500    -3.0010 h1         1 IHM       0.036700
     45 H6          -3.8940    -1.0430    -1.7990 h1         1 IHM       0.036700
     46 H7          -6.4120     0.5810    -2.4790 hc         1 IHM       0.086700
     47 H8          -7.3040    -1.6990    -2.9290 hc         1 IHM       0.078950
     48 H9          -5.7110    -2.4390    -2.4460 hc         1 IHM       0.078950
     49 H10         -5.9080    -1.4130    -0.1650 hc         1 IHM       0.078950
     50 H11         -7.5020    -0.6740    -0.6260 hc         1 IHM       0.078950
     51 H12          0.3840    -0.1100    -2.7770 h1         1 IHM       0.063700
     52 H14          1.6480     1.8970    -3.4250 h4         1 IHM       0.155000
     53 H15          4.0480     2.9260    -2.6340 ha         1 IHM       0.147000
     54 H16          4.4520    -0.2090     1.0160 ha         1 IHM       0.161000
     55 H17          8.1180     1.7490     2.0820 ha         1 IHM       0.108000
     56 H18          7.7530     3.3850     0.2900 ha         1 IHM       0.113000
     57 H19          5.7570     3.2510    -1.1440 ha         1 IHM       0.116000
     58 H20          7.4670    -0.0440     3.1960 hn         1 IHM       0.147000
     59 H21          1.7560    -1.9690    -1.9220 hc         1 IHM       0.080700
     60 H22          1.2990    -1.5790    -0.2670 hc         1 IHM       0.080700
     61 H23          6.0770    -1.5870     5.2890 hc         1 IHM       0.063367
     62 H24          6.3070    -3.0460     4.3320 hc         1 IHM       0.063367
     63 H25          7.5950    -1.8350     4.4290 hc         1 IHM       0.063367
     64 H26         -0.0530    -2.7440    -3.5700 ha         1 IHM       0.139000
     65 H27         -2.2150    -3.9180    -3.8020 h4         1 IHM       0.170000
     66 H28         -3.0620    -3.4360     0.2030 h4         1 IHM       0.170000
     67 H29         -0.9380    -2.2310     0.5920 ha         1 IHM       0.139000
@<TRIPOS>BOND
     1     1     2 ar  
     2     1     6 ar  
     3     1     7 1   
     4     2     3 ar  
     5     2    40 1   
     6     3     4 ar  
     7     3    41 1   
     8     4     5 ar  
     9     4    16 1   
    10     5     6 ar  
    11     5    42 1   
    12     6    11 1   
    13     7     8 1   
    14     8     9 1   
    15     8    10 1   
    16     8    43 1   
    17    11    12 1   
    18    12    13 1   
    19    12    44 1   
    20    12    45 1   
    21    13    14 1   
    22    13    15 1   
    23    13    46 1   
    24    14    15 1   
    25    14    47 1   
    26    14    48 1   
    27    15    49 1   
    28    15    50 1   
    29    16    22 1   
    30    16    32 1   
    31    16    51 1   
    32    17    37 2   
    33    18    19 2   
    34    18    22 1   
    35    18    52 1   
    36    19    20 1   
    37    19    53 1   
    38    20    21 2   
    39    20    23 1   
    40    21    22 1   
    41    23    24 ar  
    42    23    28 ar  
    43    24    25 ar  
    44    24    54 1   
    45    25    26 ar  
    46    25    29 1   
    47    26    27 ar  
    48    26    55 1   
    49    27    28 ar  
    50    27    56 1   
    51    28    57 1   
    52    29    30 1   
    53    29    58 1   
    54    30    31 2   
    55    30    33 1   
    56    32    34 1   
    57    32    59 1   
    58    32    60 1   
    59    33    61 1   
    60    33    62 1   
    61    33    63 1   
    62    34    35 ar  
    63    34    39 ar  
    64    35    36 ar  
    65    35    64 1   
    66    36    37 1   
    67    36    65 1   
    68    37    38 2   
    69    38    39 ar  
    70    38    66 1   
    71    39    67 1   
@<TRIPOS>SUBSTRUCTURE
     1 IHM         1 TEMP              0 ****  ****    0 ROOT
