@<TRIPOS>MOLECULE
IHM
   67    71     1     0     0
SMALL
No Charge or Current Charge


@<TRIPOS>ATOM
      1 C01         -2.7580     1.2720     0.7970 ca         1 IHM       0.055100
      2 C02         -1.4350     1.4460     1.2670 ca         1 IHM      -0.076000
      3 C03         -0.3410     1.0230     0.4930 ca         1 IHM      -0.115000
      4 C04         -0.5410     0.4370    -0.7720 ca         1 IHM      -0.074300
      5 C05         -1.8560     0.2770    -1.2490 ca         1 IHM      -0.191000
      6 C06         -2.9650     0.6710    -0.4680 ca         1 IHM       0.154100
      7 O07         -3.8750     1.6550     1.5330 os         1 IHM      -0.372100
      8 C08         -3.8280     2.2690     2.8390 c3         1 IHM       0.384300
      9 F09         -3.2130     1.4660     3.7400 f          1 IHM      -0.136500
     10 F10         -3.1460     3.4390     2.8100 f          1 IHM      -0.136500
     11 O11         -4.2630     0.4620    -0.9010 os         1 IHM      -0.325100
     12 C12         -4.5600    -0.2790    -2.0950 c3         1 IHM       0.193600
     13 C13         -6.0730    -0.4270    -2.1730 cx         1 IHM      -0.144700
     14 C14         -6.7000    -1.6070    -2.8820 cx         1 IHM      -0.118900
     15 C15         -6.7930    -1.4940    -1.3780 cx         1 IHM      -0.118900
     16 C16          0.6320    -0.0740    -1.6230 c3         1 IHM       0.152600
     17 O17         -3.6890    -4.5880    -2.4610 o          1 IHM      -0.615700
     18 C18          2.0910     1.9290    -2.2470 cc         1 IHM      -0.168000
     19 C19          3.3130     2.3410    -1.8020 cd         1 IHM      -0.211000
     20 C20          3.7580     1.4180    -0.8290 cd         1 IHM       0.303500
     21 N21          2.8760     0.4510    -0.6420 nc         1 IHM      -0.518800
     22 N22          1.8500     0.7700    -1.5180 na         1 IHM       0.132800
     23 C23          5.0330     1.4710    -0.0720 ca         1 IHM      -0.087500
     24 C24          5.2850     0.5680     0.9900 ca         1 IHM      -0.111000
     25 C25          6.5030     0.6040     1.7070 ca         1 IHM      -0.023000
     26 C26          7.4770     1.5510     1.3460 ca         1 IHM      -0.166000
     27 C27          7.2460     2.4450     0.2910 ca         1 IHM      -0.086000
     28 C28          6.0340     2.4050    -0.4150 ca         1 IHM      -0.124000
     29 N29          6.8120    -0.2720     2.7850 ns         1 IHM      -0.149000
     30 C30          6.0960    -1.2870     3.4060 c          1 IHM       0.608100
     31 O31          4.9600    -1.6290     3.1000 o          1 IHM      -0.579100
     32 C32          0.8950    -1.5840    -1.3670 c3         1 IHM      -0.028100
     33 C33          6.8510    -1.9720     4.5420 c3         1 IHM      -0.183100
     34 C34         -0.3290    -2.4490    -1.6610 ca         1 IHM      -0.100300
     35 C35         -0.6710    -2.7690    -2.9910 ca         1 IHM      -0.078500
     36 C36         -1.8340    -3.5200    -3.2500 ca         1 IHM      -0.218000
     37 N37         -2.6540    -3.9510    -2.2140 na         1 IHM       0.555000
     38 C38         -2.3150    -3.6410    -0.9030 ca         1 IHM      -0.167300
     39 C39         -1.1590    -2.8930    -0.6110 ca         1 IHM      -0.078500
     40 H1          -1.2300     1.8950     2.2340 ha         1 IHM       0.137000
     41 H2           0.6630     1.1470     0.8910 ha         1 IHM       0.144000
     42 H3          -2.0000    -0.1800    -2.2230 ha         1 IHM       0.119000
     43 H4          -4.8430     2.4710     3.1960 h3         1 IHM       0.105700
     44 H5          -4.1950     0.2500    -2.9850 h1         1 IHM       0.036700
     45 H6          -4.0940    -1.2720    -2.0600 h1         1 IHM       0.036700
     46 H7          -6.5780     0.5310    -2.2800 hc         1 IHM       0.086700
     47 H8          -7.6040    -1.4290    -3.4610 hc         1 IHM       0.078950
     48 H9          -6.0410    -2.3700    -3.2920 hc         1 IHM       0.078950
     49 H10         -6.1930    -2.1770    -0.7810 hc         1 IHM       0.078950
     50 H11         -7.7570    -1.2390    -0.9460 hc         1 IHM       0.078950
     51 H12          0.3200     0.0060    -2.6720 h1         1 IHM       0.063700
     52 H14          1.4020     2.3380    -2.9760 h4         1 IHM       0.155000
     53 H15          3.8380     3.2280    -2.1370 ha         1 IHM       0.147000
     54 H16          4.5200    -0.1560     1.2490 ha         1 IHM       0.161000
     55 H17          8.4220     1.5940     1.8840 ha         1 IHM       0.108000
     56 H18          8.0090     3.1710     0.0170 ha         1 IHM       0.113000
     57 H19          5.8860     3.1040    -1.2330 ha         1 IHM       0.116000
     58 H20          7.7350    -0.1250     3.1730 hn         1 IHM       0.147000
     59 H21          1.7360    -1.9100    -1.9910 hc         1 IHM       0.080700
     60 H22          1.2150    -1.7230    -0.3280 hc         1 IHM       0.080700
     61 H23          7.1690    -1.2150     5.2670 hc         1 IHM       0.063367
     62 H24          6.2670    -2.7680     5.0170 hc         1 IHM       0.063367
     63 H25          7.8080    -2.3450     4.1600 hc         1 IHM       0.063367
     64 H26         -0.0480    -2.4310    -3.8170 ha         1 IHM       0.139000
     65 H27         -2.1380    -3.7860    -4.2600 h4         1 IHM       0.170000
     66 H28         -2.9870    -3.9940    -0.1240 h4         1 IHM       0.170000
     67 H29         -0.9210    -2.6450     0.4220 ha         1 IHM       0.139000
@<TRIPOS>BOND
     1     1     2 ar  
     2     1     6 ar  
     3     1     7 1   
     4     2     3 ar  
     5     2    40 1   
     6     3     4 ar  
     7     3    41 1   
     8     4     5 ar  
     9     4    16 1   
    10     5     6 ar  
    11     5    42 1   
    12     6    11 1   
    13     7     8 1   
    14     8     9 1   
    15     8    10 1   
    16     8    43 1   
    17    11    12 1   
    18    12    13 1   
    19    12    44 1   
    20    12    45 1   
    21    13    14 1   
    22    13    15 1   
    23    13    46 1   
    24    14    15 1   
    25    14    47 1   
    26    14    48 1   
    27    15    49 1   
    28    15    50 1   
    29    16    22 1   
    30    16    32 1   
    31    16    51 1   
    32    17    37 2   
    33    18    19 2   
    34    18    22 1   
    35    18    52 1   
    36    19    20 1   
    37    19    53 1   
    38    20    21 2   
    39    20    23 1   
    40    21    22 1   
    41    23    24 ar  
    42    23    28 ar  
    43    24    25 ar  
    44    24    54 1   
    45    25    26 ar  
    46    25    29 1   
    47    26    27 ar  
    48    26    55 1   
    49    27    28 ar  
    50    27    56 1   
    51    28    57 1   
    52    29    30 1   
    53    29    58 1   
    54    30    31 2   
    55    30    33 1   
    56    32    34 1   
    57    32    59 1   
    58    32    60 1   
    59    33    61 1   
    60    33    62 1   
    61    33    63 1   
    62    34    35 1   
    63    34    39 2   
    64    35    36 2   
    65    35    64 1   
    66    36    37 1   
    67    36    65 1   
    68    37    38 2   
    69    38    39 1   
    70    38    66 1   
    71    39    67 1   
@<TRIPOS>SUBSTRUCTURE
     1 IHM         1 TEMP              0 ****  ****    0 ROOT
