@<TRIPOS>MOLECULE
IHN
  110   109     1     0     0
SMALL
No Charge or Current Charge


@<TRIPOS>ATOM
      1 CA          -9.0910    -3.0850    -1.3980 c3         1 IHN      -0.154400
      2 CB          -8.8840    -4.4650    -0.7170 c3         1 IHN      -0.053700
      3 CG1         -7.9750    -4.3750     0.5330 c3         1 IHN      -0.090100
      4 CG2        -10.2380    -5.1250    -0.3720 c3         1 IHN      -0.090100
      5 C           -7.7780    -2.4770    -1.9060 c          1 IHN       0.604100
      6 O           -7.1960    -2.9010    -2.8940 o          1 IHN      -0.612100
      7 N           -7.3180    -1.4030    -1.1790 ns         1 IHN      -0.491900
      8 CA1         -6.0740    -0.6470    -1.4570 c3         1 IHN       0.030700
      9 C1          -5.3230    -0.3470    -0.1250 c          1 IHN       0.592100
     10 O1          -5.8250    -0.5200     0.9800 o          1 IHN      -0.617100
     11 CB1         -6.3500     0.6480    -2.2880 c3         1 IHN      -0.070700
     12 CG11        -6.8820     0.3390    -3.7070 c3         1 IHN      -0.087600
     13 CG21        -7.2770     1.6500    -1.5540 c3         1 IHN      -0.087600
     14 N1          -4.0400     0.1360    -0.2740 ns         1 IHN      -0.482900
     15 CA2         -3.1250     0.4990     0.8340 c3         1 IHN       0.026700
     16 C2          -2.3470     1.7980     0.4740 c          1 IHN       0.585100
     17 O2          -2.3090     2.2600    -0.6600 o          1 IHN      -0.611100
     18 CB2         -2.1660    -0.6770     1.2080 c3         1 IHN      -0.061700
     19 CG12        -2.9130    -1.8670     1.8540 c3         1 IHN      -0.092100
     20 CG22        -1.2950    -1.1510     0.0180 c3         1 IHN      -0.092100
     21 N2          -1.7030     2.4060     1.5340 ns         1 IHN      -0.504900
     22 CA3         -0.9640     3.6790     1.4540 c3         1 IHN       0.073700
     23 CB3         -1.3260     4.5940     2.6570 c3         1 IHN      -0.089400
     24 CG          -2.8420     4.8930     2.8480 c3         1 IHN      -0.059700
     25 CD1         -3.0790     5.7320     4.1240 c3         1 IHN      -0.090100
     26 CD2         -3.4810     5.5770     1.6160 c3         1 IHN      -0.090100
     27 CH           0.5760     3.4710     1.2970 c3         1 IHN       0.169300
     28 OH           1.0920     2.7130     2.4010 oh         1 IHN      -0.648000
     29 CM           0.9660     2.7510    -0.0100 c3         1 IHN      -0.196400
     30 C3           2.4690     2.8320    -0.2560 c          1 IHN       0.611100
     31 O3           3.0190     3.8670    -0.6050 o          1 IHN      -0.618100
     32 N3           3.1520     1.6460    -0.1120 ns         1 IHN      -0.492900
     33 CA4          4.6070     1.4650    -0.3040 c3         1 IHN       0.026700
     34 C4           4.9400    -0.0390    -0.5280 c          1 IHN       0.592100
     35 O4           4.1200    -0.9350    -0.3570 o          1 IHN      -0.623100
     36 CB4          5.3950     2.0530     0.8910 c3         1 IHN      -0.107100
     37 N4           6.2320    -0.2900    -0.9400 ns         1 IHN      -0.483900
     38 CA5          6.8130    -1.6220    -1.1680 c3         1 IHN       0.068700
     39 CB5          7.3320    -1.7530    -2.6270 c3         1 IHN      -0.089400
     40 CG3          6.2730    -1.5310    -3.7460 c3         1 IHN      -0.060700
     41 CD11         6.9390    -1.5310    -5.1410 c3         1 IHN      -0.087600
     42 CD21         5.1190    -2.5610    -3.6930 c3         1 IHN      -0.087600
     43 CH1          7.9130    -1.9510    -0.1090 c3         1 IHN       0.173300
     44 OH1          8.9550    -0.9630    -0.1410 oh         1 IHN      -0.659000
     45 CM1          7.3710    -2.0120     1.3360 c3         1 IHN      -0.241400
     46 C5           8.4690    -2.5440     2.2560 c          1 IHN       0.723000
     47 O5           8.5340    -3.7490     2.4410 o          1 IHN      -0.734500
     48 OXT          9.2960    -1.7440     2.6640 o          1 IHN      -0.734500
     49 HA1         -9.7550    -3.2220    -2.2600 hc         1 IHN       0.056200
     50 HA2         -9.5660    -2.4070    -0.6790 hc         1 IHN       0.056200
     51 HB          -8.3820    -5.1220    -1.4390 hc         1 IHN       0.067700
     52 HG11        -8.4090    -3.7030     1.2840 hc         1 IHN       0.034867
     53 HG12        -7.8490    -5.3630     0.9910 hc         1 IHN       0.034867
     54 HG13        -6.9780    -4.0000     0.2720 hc         1 IHN       0.034867
     55 HG21       -10.8550    -5.2400    -1.2710 hc         1 IHN       0.034867
     56 HG22       -10.0850    -6.1210     0.0610 hc         1 IHN       0.034867
     57 HG23       -10.7960    -4.5180     0.3520 hc         1 IHN       0.034867
     58 H           -7.8510    -1.1520    -0.3540 hn         1 IHN       0.329500
     59 HA          -5.3970    -1.2880    -2.0370 h1         1 IHN       0.095700
     60 HB1         -5.3880     1.1560    -2.4310 hc         1 IHN       0.060700
     61 HG14        -7.8820    -0.1080    -3.6680 hc         1 IHN       0.037367
     62 HG15        -6.9460     1.2580    -4.3040 hc         1 IHN       0.037367
     63 HG16        -6.2130    -0.3550    -4.2300 hc         1 IHN       0.037367
     64 HG24        -7.3930     2.5680    -2.1430 hc         1 IHN       0.037367
     65 HG25        -8.2740     1.2220    -1.3940 hc         1 IHN       0.037367
     66 HG26        -6.8620     1.9310    -0.5790 hc         1 IHN       0.037367
     67 H1          -3.7150     0.2910    -1.2220 hn         1 IHN       0.335500
     68 HA3         -3.7270     0.7490     1.7180 h1         1 IHN       0.085700
     69 HB2         -1.4760    -0.3010     1.9740 hc         1 IHN       0.045700
     70 HG17        -3.5780    -2.3560     1.1330 hc         1 IHN       0.043200
     71 HG18        -2.2000    -2.6160     2.2200 hc         1 IHN       0.043200
     72 HG19        -3.5150    -1.5310     2.7070 hc         1 IHN       0.043200
     73 HG27        -0.7260    -0.3200    -0.4150 hc         1 IHN       0.043200
     74 HG28        -0.5750    -1.9110     0.3470 hc         1 IHN       0.043200
     75 HG29        -1.9120    -1.5920    -0.7740 hc         1 IHN       0.043200
     76 HN1         -1.8360     1.9840     2.4460 hn         1 IHN       0.314500
     77 HA4         -1.2940     4.2070     0.5490 h1         1 IHN       0.084700
     78 HB11        -0.9440     4.1330     3.5760 hc         1 IHN       0.055700
     79 HB21        -0.7900     5.5450     2.5460 hc         1 IHN       0.055700
     80 HG          -3.3630     3.9390     2.9990 hc         1 IHN       0.041700
     81 HD11        -2.5920     6.7120     4.0440 hc         1 IHN       0.034533
     82 HD12        -4.1510     5.8940     4.2890 hc         1 IHN       0.034533
     83 HD13        -2.6760     5.2200     5.0070 hc         1 IHN       0.034533
     84 HD21        -3.4480     4.9220     0.7370 hc         1 IHN       0.034533
     85 HD22        -4.5340     5.8140     1.8090 hc         1 IHN       0.034533
     86 HD23        -2.9590     6.5100     1.3730 hc         1 IHN       0.034533
     87 HC           1.0400     4.4690     1.2790 h1         1 IHN       0.096700
     88 HH           0.5120     1.9300     2.5010 ho         1 IHN       0.439000
     89 HM1          0.6420     1.7050     0.0400 hc         1 IHN       0.070200
     90 HM2          0.4610     3.2530    -0.8430 hc         1 IHN       0.070200
     91 H2           2.6050     0.8340     0.1520 hn         1 IHN       0.336500
     92 HA5          4.9050     1.9960    -1.2180 h1         1 IHN       0.072700
     93 HB12         6.4760     1.9550     0.7350 hc         1 IHN       0.052367
     94 HB22         5.1720     3.1190     1.0210 hc         1 IHN       0.052367
     95 HB3          5.1350     1.5320     1.8200 hc         1 IHN       0.052367
     96 HN11         6.8470     0.5100    -1.0280 hn         1 IHN       0.306500
     97 HA6          6.0260    -2.3750    -1.0350 h1         1 IHN       0.079700
     98 HB13         8.1480    -1.0330    -2.7720 hc         1 IHN       0.052700
     99 HB23         7.7750    -2.7480    -2.7550 hc         1 IHN       0.052700
    100 HG1          5.8320    -0.5360    -3.6080 hc         1 IHN       0.036700
    101 HD14         7.4010    -2.5040    -5.3540 hc         1 IHN       0.030200
    102 HD15         6.2000    -1.3230    -5.9250 hc         1 IHN       0.030200
    103 HD16         7.7180    -0.7610    -5.2000 hc         1 IHN       0.030200
    104 HD24         5.5050    -3.5840    -3.7740 hc         1 IHN       0.030200
    105 HD25         4.5540    -2.4770    -2.7580 hc         1 IHN       0.030200
    106 HD26         4.4160    -2.3950    -4.5180 hc         1 IHN       0.030200
    107 HC1          8.3240    -2.9430    -0.3550 h1         1 IHN       0.094700
    108 HH1          9.3340    -0.9520     0.7690 ho         1 IHN       0.427000
    109 HM11         7.1020    -0.9850     1.6130 hc         1 IHN       0.029200
    110 HM21         6.5160    -2.6990     1.3240 hc         1 IHN       0.029200
@<TRIPOS>BOND
     1     1     2 1   
     2     1     5 1   
     3     1    49 1   
     4     1    50 1   
     5     2     3 1   
     6     2     4 1   
     7     2    51 1   
     8     3    52 1   
     9     3    53 1   
    10     3    54 1   
    11     4    55 1   
    12     4    56 1   
    13     4    57 1   
    14     5     6 2   
    15     5     7 1   
    16     7     8 1   
    17     7    58 1   
    18     8     9 1   
    19     8    11 1   
    20     8    59 1   
    21     9    10 2   
    22     9    14 1   
    23    11    12 1   
    24    11    13 1   
    25    11    60 1   
    26    12    61 1   
    27    12    62 1   
    28    12    63 1   
    29    13    64 1   
    30    13    65 1   
    31    13    66 1   
    32    14    15 1   
    33    14    67 1   
    34    15    16 1   
    35    15    18 1   
    36    15    68 1   
    37    16    17 2   
    38    16    21 1   
    39    18    19 1   
    40    18    20 1   
    41    18    69 1   
    42    19    70 1   
    43    19    71 1   
    44    19    72 1   
    45    20    73 1   
    46    20    74 1   
    47    20    75 1   
    48    21    22 1   
    49    21    76 1   
    50    22    23 1   
    51    22    27 1   
    52    22    77 1   
    53    23    24 1   
    54    23    78 1   
    55    23    79 1   
    56    24    25 1   
    57    24    26 1   
    58    24    80 1   
    59    25    81 1   
    60    25    82 1   
    61    25    83 1   
    62    26    84 1   
    63    26    85 1   
    64    26    86 1   
    65    27    28 1   
    66    27    29 1   
    67    27    87 1   
    68    28    88 1   
    69    29    30 1   
    70    29    89 1   
    71    29    90 1   
    72    30    31 2   
    73    30    32 1   
    74    32    33 1   
    75    32    91 1   
    76    33    34 1   
    77    33    36 1   
    78    33    92 1   
    79    34    35 2   
    80    34    37 1   
    81    36    93 1   
    82    36    94 1   
    83    36    95 1   
    84    37    38 1   
    85    37    96 1   
    86    38    39 1   
    87    38    43 1   
    88    38    97 1   
    89    39    40 1   
    90    39    98 1   
    91    39    99 1   
    92    40    41 1   
    93    40    42 1   
    94    40   100 1   
    95    41   101 1   
    96    41   102 1   
    97    41   103 1   
    98    42   104 1   
    99    42   105 1   
   100    42   106 1   
   101    43    44 1   
   102    43    45 1   
   103    43   107 1   
   104    44   108 1   
   105    45    46 1   
   106    45   109 1   
   107    45   110 1   
   108    46    47 1   
   109    46    48 1   
@<TRIPOS>SUBSTRUCTURE
     1 IHN         1 TEMP              0 ****  ****    0 ROOT
