@<TRIPOS>MOLECULE
IHN
  110   109     1     0     0
SMALL
abcg2


@<TRIPOS>ATOM
      1 CA          -8.8720    -2.9750    -0.8420 c3         1 IHN      -0.154400
      2 CB          -8.7210    -4.4230    -0.3670 c3         1 IHN      -0.053700
      3 CG1         -7.6980    -4.5330     0.7580 c3         1 IHN      -0.090100
      4 CG2        -10.0740    -4.9680     0.0770 c3         1 IHN      -0.090100
      5 C           -7.5840    -2.4290    -1.4150 c          1 IHN       0.604100
      6 O           -7.0240    -2.9690    -2.3600 o          1 IHN      -0.612100
      7 N           -7.1090    -1.3230    -0.8120 ns         1 IHN      -0.491900
      8 CA1         -5.8690    -0.6840    -1.1560 c3         1 IHN       0.030700
      9 C1          -5.0700    -0.4220     0.1180 c          1 IHN       0.592100
     10 O1          -5.5970    -0.3940     1.2190 o          1 IHN      -0.617100
     11 CB1         -6.0670     0.6350    -1.9390 c3         1 IHN      -0.070700
     12 CG11        -6.7760     0.3770    -3.2630 c3         1 IHN      -0.087600
     13 CG21        -6.8070     1.6910    -1.1260 c3         1 IHN      -0.087600
     14 N1          -3.7650    -0.1830    -0.0960 ns         1 IHN      -0.482900
     15 CA2         -2.8730     0.3470     0.9000 c3         1 IHN       0.026700
     16 C2          -2.2210     1.6140     0.3450 c          1 IHN       0.585100
     17 O2          -2.1800     1.8450    -0.8530 o          1 IHN      -0.611100
     18 CB2         -1.8080    -0.6710     1.3610 c3         1 IHN      -0.061700
     19 CG12        -2.4720    -1.8710     2.0260 c3         1 IHN      -0.092100
     20 CG22        -0.8880    -1.1170     0.2310 c3         1 IHN      -0.092100
     21 N2          -1.6750     2.4090     1.2820 ns         1 IHN      -0.504900
     22 CA3         -1.0530     3.6950     1.0140 c3         1 IHN       0.073700
     23 CB3         -1.6130     4.7570     1.9570 c3         1 IHN      -0.089400
     24 CG          -3.1320     4.9300     1.9160 c3         1 IHN      -0.059700
     25 CD1         -3.5480     6.0210     2.8980 c3         1 IHN      -0.090100
     26 CD2         -3.6430     5.2500     0.5140 c3         1 IHN      -0.090100
     27 CH           0.4770     3.5990     1.1110 c3         1 IHN       0.169300
     28 OH           0.9060     3.1920     2.3910 oh         1 IHN      -0.648000
     29 CM           1.0580     2.6990     0.0260 c3         1 IHN      -0.196400
     30 C3           2.5690     2.6650     0.0980 c          1 IHN       0.611100
     31 O3           3.2410     3.6870     0.0860 o          1 IHN      -0.618100
     32 N3           3.1030     1.4360     0.1580 ns         1 IHN      -0.492900
     33 CA4          4.5170     1.1730     0.2290 c3         1 IHN       0.026700
     34 C4           4.7670    -0.2040    -0.3820 c          1 IHN       0.592100
     35 O4           3.8750    -1.0400    -0.4380 o          1 IHN      -0.623100
     36 CB4          5.0330     1.2100     1.6700 c3         1 IHN      -0.107100
     37 N4           6.0240    -0.4120    -0.7920 ns         1 IHN      -0.483900
     38 CA5          6.5100    -1.6510    -1.3750 c3         1 IHN       0.068700
     39 CB5          7.3290    -1.3520    -2.6280 c3         1 IHN      -0.089400
     40 CG3          6.6030    -0.5590    -3.7160 c3         1 IHN      -0.060700
     41 CD11         7.5420    -0.3350    -4.8970 c3         1 IHN      -0.087600
     42 CD21         5.3180    -1.2450    -4.1730 c3         1 IHN      -0.087600
     43 CH1          7.3110    -2.4770    -0.3570 c3         1 IHN       0.173300
     44 OH1          8.4720    -1.7870     0.0680 oh         1 IHN      -0.659000
     45 CM1          6.4820    -2.9330     0.8310 c3         1 IHN      -0.241400
     46 C5           7.2440    -3.9050     1.7520 c          1 IHN       0.723000
     47 O5           7.8590    -4.8350     1.1910 o          1 IHN      -0.734500
     48 OXT          7.1630    -3.7070     2.9800 o          1 IHN      -0.734500
     49 HA1         -9.6280    -2.9250    -1.6310 hc         1 IHN       0.056200
     50 HA2         -9.2370    -2.3550    -0.0170 hc         1 IHN       0.056200
     51 HB          -8.3720    -5.0200    -1.2160 hc         1 IHN       0.067700
     52 HG11        -8.0130    -3.9500     1.6270 hc         1 IHN       0.034867
     53 HG12        -7.5820    -5.5690     1.0810 hc         1 IHN       0.034867
     54 HG13        -6.7120    -4.1750     0.4590 hc         1 IHN       0.034867
     55 HG21       -10.8100    -4.9150    -0.7260 hc         1 IHN       0.034867
     56 HG22        -9.9950    -6.0100     0.3900 hc         1 IHN       0.034867
     57 HG23       -10.4620    -4.3970     0.9240 hc         1 IHN       0.034867
     58 H           -7.5910    -0.9810     0.0040 hn         1 IHN       0.329500
     59 HA          -5.3060    -1.3720    -1.7920 h1         1 IHN       0.095700
     60 HB1         -5.0670     1.0180    -2.1660 hc         1 IHN       0.060700
     61 HG14        -7.8050     0.0470    -3.1090 hc         1 IHN       0.037367
     62 HG15        -6.8120     1.2940    -3.8530 hc         1 IHN       0.037367
     63 HG16        -6.2640    -0.3820    -3.8560 hc         1 IHN       0.037367
     64 HG24        -6.9260     2.6020    -1.7140 hc         1 IHN       0.037367
     65 HG25        -7.8060     1.3490    -0.8480 hc         1 IHN       0.037367
     66 HG26        -6.2790     1.9650    -0.2110 hc         1 IHN       0.037367
     67 H1          -3.4290    -0.1890    -1.0470 hn         1 IHN       0.335500
     68 HA3         -3.4740     0.6160     1.7720 h1         1 IHN       0.085700
     69 HB2         -1.2010    -0.1640     2.1180 hc         1 IHN       0.045700
     70 HG17        -3.0520    -2.4520     1.3090 hc         1 IHN       0.043200
     71 HG18        -1.7160    -2.5320     2.4520 hc         1 IHN       0.043200
     72 HG19        -3.1400    -1.5660     2.8320 hc         1 IHN       0.043200
     73 HG27        -0.3840    -0.2830    -0.2580 hc         1 IHN       0.043200
     74 HG28        -0.1150    -1.7820     0.6170 hc         1 IHN       0.043200
     75 HG29        -1.4360    -1.6680    -0.5360 hc         1 IHN       0.043200
     76 HN1         -1.8590     2.1840     2.2480 hn         1 IHN       0.314500
     77 HA4         -1.2930     3.9690    -0.0150 h1         1 IHN       0.084700
     78 HB11        -1.3050     4.5290     2.9820 hc         1 IHN       0.055700
     79 HB21        -1.1390     5.7100     1.6980 hc         1 IHN       0.055700
     80 HG          -3.5980     3.9930     2.2410 hc         1 IHN       0.041700
     81 HD11        -3.1340     6.9890     2.6040 hc         1 IHN       0.034533
     82 HD12        -4.6330     6.1230     2.9390 hc         1 IHN       0.034533
     83 HD13        -3.1960     5.8040     3.9090 hc         1 IHN       0.034533
     84 HD21        -3.4850     4.4270    -0.1850 hc         1 IHN       0.034533
     85 HD22        -4.7140     5.4560     0.5290 hc         1 IHN       0.034533
     86 HD23        -3.1420     6.1330     0.1100 hc         1 IHN       0.034533
     87 HC           0.8730     4.6070     0.9670 h1         1 IHN       0.096700
     88 HH           0.6500     2.2740     2.5280 ho         1 IHN       0.439000
     89 HM1          0.6430     1.6900     0.1070 hc         1 IHN       0.070200
     90 HM2          0.7680     3.0770    -0.9580 hc         1 IHN       0.070200
     91 H2           2.4990     0.6280     0.1710 hn         1 IHN       0.336500
     92 HA5          5.0430     1.9310    -0.3560 h1         1 IHN       0.072700
     93 HB12         6.1070     1.0290     1.7150 hc         1 IHN       0.052367
     94 HB22         4.8390     2.1890     2.1060 hc         1 IHN       0.052367
     95 HB3          4.5310     0.4570     2.2790 hc         1 IHN       0.052367
     96 HN11         6.6650     0.3660    -0.7630 hn         1 IHN       0.306500
     97 HA6          5.6350    -2.2410    -1.6570 h1         1 IHN       0.079700
     98 HB13         8.2420    -0.8190    -2.3450 hc         1 IHN       0.052700
     99 HB23         7.6560    -2.3110    -3.0470 hc         1 IHN       0.052700
    100 HG1          6.3340     0.4220    -3.3090 hc         1 IHN       0.036700
    101 HD14         7.8360    -1.2860    -5.3480 hc         1 IHN       0.030200
    102 HD15         7.0670     0.2680    -5.6740 hc         1 IHN       0.030200
    103 HD16         8.4530     0.1810    -4.5900 hc         1 IHN       0.030200
    104 HD24         5.5190    -2.2620    -4.5200 hc         1 IHN       0.030200
    105 HD25         4.5750    -1.3070    -3.3770 hc         1 IHN       0.030200
    106 HD26         4.8610    -0.6980    -5.0000 hc         1 IHN       0.030200
    107 HC1          7.6700    -3.3660    -0.8840 h1         1 IHN       0.094700
    108 HH1          8.2050    -1.1100     0.6990 ho         1 IHN       0.427000
    109 HM11         6.1280    -2.0700     1.4030 hc         1 IHN       0.029200
    110 HM21         5.5850    -3.4430     0.4620 hc         1 IHN       0.029200
@<TRIPOS>BOND
     1     1     2 1   
     2     1     5 1   
     3     1    49 1   
     4     1    50 1   
     5     2     3 1   
     6     2     4 1   
     7     2    51 1   
     8     3    52 1   
     9     3    53 1   
    10     3    54 1   
    11     4    55 1   
    12     4    56 1   
    13     4    57 1   
    14     5     6 2   
    15     5     7 1   
    16     7     8 1   
    17     7    58 1   
    18     8     9 1   
    19     8    11 1   
    20     8    59 1   
    21     9    10 2   
    22     9    14 1   
    23    11    12 1   
    24    11    13 1   
    25    11    60 1   
    26    12    61 1   
    27    12    62 1   
    28    12    63 1   
    29    13    64 1   
    30    13    65 1   
    31    13    66 1   
    32    14    15 1   
    33    14    67 1   
    34    15    16 1   
    35    15    18 1   
    36    15    68 1   
    37    16    17 2   
    38    16    21 1   
    39    18    19 1   
    40    18    20 1   
    41    18    69 1   
    42    19    70 1   
    43    19    71 1   
    44    19    72 1   
    45    20    73 1   
    46    20    74 1   
    47    20    75 1   
    48    21    22 1   
    49    21    76 1   
    50    22    23 1   
    51    22    27 1   
    52    22    77 1   
    53    23    24 1   
    54    23    78 1   
    55    23    79 1   
    56    24    25 1   
    57    24    26 1   
    58    24    80 1   
    59    25    81 1   
    60    25    82 1   
    61    25    83 1   
    62    26    84 1   
    63    26    85 1   
    64    26    86 1   
    65    27    28 1   
    66    27    29 1   
    67    27    87 1   
    68    28    88 1   
    69    29    30 1   
    70    29    89 1   
    71    29    90 1   
    72    30    31 2   
    73    30    32 1   
    74    32    33 1   
    75    32    91 1   
    76    33    34 1   
    77    33    36 1   
    78    33    92 1   
    79    34    35 2   
    80    34    37 1   
    81    36    93 1   
    82    36    94 1   
    83    36    95 1   
    84    37    38 1   
    85    37    96 1   
    86    38    39 1   
    87    38    43 1   
    88    38    97 1   
    89    39    40 1   
    90    39    98 1   
    91    39    99 1   
    92    40    41 1   
    93    40    42 1   
    94    40   100 1   
    95    41   101 1   
    96    41   102 1   
    97    41   103 1   
    98    42   104 1   
    99    42   105 1   
   100    42   106 1   
   101    43    44 1   
   102    43    45 1   
   103    43   107 1   
   104    44   108 1   
   105    45    46 1   
   106    45   109 1   
   107    45   110 1   
   108    46    47 1   
   109    46    48 1   
@<TRIPOS>SUBSTRUCTURE
     1 IHN         1 TEMP              0 ****  ****    0 ROOT
