@<TRIPOS>MOLECULE
IHP
   42    42     1     0     0
SMALL
No Charge or Current Charge


@<TRIPOS>ATOM
      1 C1           1.3000    -0.7170     0.5570 c6         1 IHP       0.217133
      2 C2           0.0810    -1.5930     0.0880 c6         1 IHP       0.217133
      3 C3          -1.2320    -0.8500     0.5330 c6         1 IHP       0.217133
      4 C4          -1.3310     0.5570    -0.1770 c6         1 IHP       0.217133
      5 C5          -0.0790     1.4260     0.2600 c6         1 IHP       0.217133
      6 C6           1.2660     0.6930    -0.1520 c6         1 IHP       0.217133
      7 O11          2.5750    -1.4100     0.4560 os         1 IHP      -0.564900
      8 P1           3.2230    -2.0790     1.7780 p5         1 IHP       1.345900
      9 O21          2.3110    -3.1020     2.3600 o          1 IHP      -1.001889
     10 O31          4.5100    -2.7420     1.4240 o          1 IHP      -1.001889
     11 O41          3.5040    -1.0420     2.8100 o          1 IHP      -1.001889
     12 O12          0.1060    -1.8030    -1.3550 os         1 IHP      -0.564900
     13 P2           0.1890    -3.2710    -2.0300 p5         1 IHP       1.345900
     14 O22         -0.9860    -4.1100    -1.6700 o          1 IHP      -1.001889
     15 O32          0.1950    -3.1070    -3.5110 o          1 IHP      -1.001889
     16 O42          1.4390    -3.9840    -1.6460 o          1 IHP      -1.001889
     17 O13         -2.4250    -1.6720     0.4080 os         1 IHP      -0.564900
     18 P3          -3.0240    -2.4060     1.7180 p5         1 IHP       1.345900
     19 O23         -2.0220    -3.3290     2.3180 o          1 IHP      -1.001889
     20 O33         -3.4310    -1.4060     2.7440 o          1 IHP      -1.001889
     21 O43         -4.2280    -3.2000     1.3400 o          1 IHP      -1.001889
     22 O14         -2.6000     1.2200     0.0950 os         1 IHP      -0.564900
     23 P4          -3.6290     1.5490    -1.1130 p5         1 IHP       1.345900
     24 O24         -4.0860     0.3080    -1.7990 o          1 IHP      -1.001889
     25 O34         -4.8330     2.2330    -0.5580 o          1 IHP      -1.001889
     26 O44         -3.0110     2.4500    -2.1270 o          1 IHP      -1.001889
     27 O15         -0.1460     2.8040    -0.2090 os         1 IHP      -0.564900
     28 P5          -0.2210     4.0250     0.8560 p5         1 IHP       1.345900
     29 O25          0.9780     4.0540     1.7410 o          1 IHP      -1.001889
     30 O35         -0.2820     5.3200     0.1190 o          1 IHP      -1.001889
     31 O45         -1.4320     3.9280     1.7180 o          1 IHP      -1.001889
     32 O16          2.4530     1.4850     0.1440 os         1 IHP      -0.564900
     33 P6           3.4650     1.9210    -1.0450 p5         1 IHP       1.345900
     34 O26          2.7760     2.7540    -2.0710 o          1 IHP      -1.001889
     35 O36          4.5800     2.7260    -0.4670 o          1 IHP      -1.001889
     36 O46          4.0620     0.7360    -1.7200 o          1 IHP      -1.001889
     37 H1           1.1320    -0.5150     1.6260 h1         1 IHP       0.007367
     38 H2           0.1270    -2.5670     0.5940 h1         1 IHP       0.007367
     39 H3          -1.1060    -0.6330     1.6040 h1         1 IHP       0.007367
     40 H4          -1.2560     0.3960    -1.2630 h1         1 IHP       0.007367
     41 H5          -0.0910     1.4510     1.3600 h1         1 IHP       0.007367
     42 H6           1.2290     0.5270    -1.2390 h1         1 IHP       0.007367
@<TRIPOS>BOND
     1     1     2 1   
     2     1     6 1   
     3     1     7 1   
     4     1    37 1   
     5     2     3 1   
     6     2    12 1   
     7     2    38 1   
     8     3     4 1   
     9     3    17 1   
    10     3    39 1   
    11     4     5 1   
    12     4    22 1   
    13     4    40 1   
    14     5     6 1   
    15     5    27 1   
    16     5    41 1   
    17     6    32 1   
    18     6    42 1   
    19     7     8 1   
    20     8     9 1   
    21     8    10 1   
    22     8    11 1   
    23    12    13 1   
    24    13    14 1   
    25    13    15 1   
    26    13    16 1   
    27    17    18 1   
    28    18    19 1   
    29    18    20 1   
    30    18    21 1   
    31    22    23 1   
    32    23    24 1   
    33    23    25 1   
    34    23    26 1   
    35    27    28 1   
    36    28    29 1   
    37    28    30 1   
    38    28    31 1   
    39    32    33 1   
    40    33    34 1   
    41    33    35 1   
    42    33    36 1   
@<TRIPOS>SUBSTRUCTURE
     1 IHP         1 TEMP              0 ****  ****    0 ROOT
