@<TRIPOS>MOLECULE
IHP
   42    42     1     0     0
SMALL
abcg2


@<TRIPOS>ATOM
      1 C1           1.2860    -0.7110     0.5820 c6         1 IHP       0.217133
      2 C2           0.0850    -1.5770     0.1870 c6         1 IHP       0.217133
      3 C3          -1.2000    -0.8350     0.5760 c6         1 IHP       0.217133
      4 C4          -1.2810     0.5080    -0.1630 c6         1 IHP       0.217133
      5 C5          -0.0700     1.3630     0.2710 c6         1 IHP       0.217133
      6 C6           1.2390     0.6480    -0.1330 c6         1 IHP       0.217133
      7 O11          2.5020    -1.3520     0.3590 os         1 IHP      -0.564900
      8 P1           3.2300    -2.1610     1.6210 p5         1 IHP       1.345900
      9 O21          2.2830    -3.2740     2.0770 o          1 IHP      -1.001889
     10 O31          4.5220    -2.6690     0.9750 o          1 IHP      -1.001889
     11 O41          3.4720    -1.1260     2.7280 o          1 IHP      -1.001889
     12 O12          0.0840    -1.8350    -1.1950 os         1 IHP      -0.564900
     13 P2           0.2030    -3.3670    -1.8620 p5         1 IHP       1.345900
     14 O22         -0.6540    -4.3120    -1.0240 o          1 IHP      -1.001889
     15 O32         -0.3630    -3.1050    -3.2670 o          1 IHP      -1.001889
     16 O42          1.6830    -3.7480    -1.8930 o          1 IHP      -1.001889
     17 O13         -2.3360    -1.6120     0.3580 os         1 IHP      -0.564900
     18 P3          -3.0880    -2.3150     1.6710 p5         1 IHP       1.345900
     19 O23         -2.0300    -3.0950     2.4550 o          1 IHP      -1.001889
     20 O33         -3.6910    -1.1750     2.5000 o          1 IHP      -1.001889
     21 O43         -4.1450    -3.1930     0.9930 o          1 IHP      -1.001889
     22 O14         -2.4860     1.1520     0.1100 os         1 IHP      -0.564900
     23 P4          -3.5260     1.5790    -1.1260 p5         1 IHP       1.345900
     24 O24         -3.7270     0.3350    -1.9960 o          1 IHP      -1.001889
     25 O34         -4.7800     1.9930    -0.3470 o          1 IHP      -1.001889
     26 O44         -2.8900     2.7260    -1.9150 o          1 IHP      -1.001889
     27 O15         -0.1300     2.6430    -0.2650 os         1 IHP      -0.564900
     28 P5          -0.2320     3.9880     0.7280 p5         1 IHP       1.345900
     29 O25          0.9920     3.9770     1.6500 o          1 IHP      -1.001889
     30 O35         -0.2390     5.1340    -0.2860 o          1 IHP      -1.001889
     31 O45         -1.5300     3.8730     1.5320 o          1 IHP      -1.001889
     32 O16          2.3560     1.4120     0.2060 os         1 IHP      -0.564900
     33 P6           3.3940     2.0280    -0.9500 p5         1 IHP       1.345900
     34 O26          2.6910     3.1830    -1.6640 o          1 IHP      -1.001889
     35 O36          4.5740     2.4800    -0.0810 o          1 IHP      -1.001889
     36 O46          3.7340     0.8870    -1.9140 o          1 IHP      -1.001889
     37 H1           1.1690    -0.4910     1.6590 h1         1 IHP       0.007367
     38 H2           0.1220    -2.5020     0.7670 h1         1 IHP       0.007367
     39 H3          -1.1080    -0.5990     1.6490 h1         1 IHP       0.007367
     40 H4          -1.1890     0.2970    -1.2370 h1         1 IHP       0.007367
     41 H5          -0.0840     1.4100     1.3750 h1         1 IHP       0.007367
     42 H6           1.2110     0.4610    -1.2150 h1         1 IHP       0.007367
@<TRIPOS>BOND
     1     1     2 1   
     2     1     6 1   
     3     1     7 1   
     4     1    37 1   
     5     2     3 1   
     6     2    12 1   
     7     2    38 1   
     8     3     4 1   
     9     3    17 1   
    10     3    39 1   
    11     4     5 1   
    12     4    22 1   
    13     4    40 1   
    14     5     6 1   
    15     5    27 1   
    16     5    41 1   
    17     6    32 1   
    18     6    42 1   
    19     7     8 1   
    20     8     9 1   
    21     8    10 1   
    22     8    11 1   
    23    12    13 1   
    24    13    14 1   
    25    13    15 1   
    26    13    16 1   
    27    17    18 1   
    28    18    19 1   
    29    18    20 1   
    30    18    21 1   
    31    22    23 1   
    32    23    24 1   
    33    23    25 1   
    34    23    26 1   
    35    27    28 1   
    36    28    29 1   
    37    28    30 1   
    38    28    31 1   
    39    32    33 1   
    40    33    34 1   
    41    33    35 1   
    42    33    36 1   
@<TRIPOS>SUBSTRUCTURE
     1 IHP         1 TEMP              0 ****  ****    0 ROOT
