@<TRIPOS>MOLECULE
IHQ
   40    41     1     0     0
SMALL
abcg2


@<TRIPOS>ATOM
      1 C1           4.5740     0.9420     0.8290 ca         1 IHQ      -0.026000
      2 C13         -0.7630     0.4810    -1.1230 c3         1 IHQ      -0.063200
      3 C2           5.1920     2.1670     0.7520 ca         1 IHQ      -0.147000
      4 C3           4.5020     3.2540     0.2060 ca         1 IHQ      -0.057000
      5 C4           3.2120     3.1180    -0.2560 ca         1 IHQ      -0.158000
      6 C5           2.5850     1.8670    -0.1740 ca         1 IHQ       0.319000
      7 C6           3.2620     0.7680     0.3670 ca         1 IHQ      -0.196600
      8 C7           2.6210    -0.5470     0.4600 c          1 IHQ       0.600900
      9 C8           1.2820    -0.5920    -0.0690 cc         1 IHQ      -0.177400
     10 C9           0.6410     0.4970    -0.6020 cd         1 IHQ       0.224800
     11 I20          0.3540    -2.4690     0.0660 i          1 IHQ      -0.122800
     12 N10          1.2940     1.6870    -0.6170 na         1 IHQ      -0.447700
     13 O11          0.6830     2.7580    -1.1880 oh         1 IHQ      -0.368300
     14 O12          3.1940    -1.5160     0.9510 o          1 IHQ      -0.542100
     15 H1           5.0930     0.0910     1.2480 ha         1 IHQ       0.142000
     16 H2          -0.8620     1.1760    -1.9550 hc         1 IHQ       0.078700
     17 H3          -0.9830    -0.5080    -1.5200 hc         1 IHQ       0.078700
     18 H5           6.2040     2.2930     1.1110 ha         1 IHQ       0.123000
     19 H6           4.9820     4.2210     0.1420 ha         1 IHQ       0.118000
     20 H7           2.7010     3.9720    -0.6740 ha         1 IHQ       0.128000
     21 H8           0.2360     3.2400    -0.4750 ho         1 IHQ       0.453000
     22 C10         -1.7760     0.8330    -0.0280 c3         1 IHQ      -0.071400
     23 C11         -3.2050     0.8070    -0.5520 c3         1 IHQ      -0.075400
     24 C12         -4.2300     1.1780     0.5110 c3         1 IHQ      -0.074400
     25 C14         -5.6620     1.1670    -0.0090 c3         1 IHQ      -0.075400
     26 C15         -6.6890     1.5550     1.0480 c3         1 IHQ      -0.075400
     27 C16         -8.1170     1.5400     0.5220 c3         1 IHQ      -0.089100
     28 H4          -1.6750     0.1290     0.8040 hc         1 IHQ       0.045200
     29 H9          -1.5550     1.8240     0.3800 hc         1 IHQ       0.045200
     30 H10         -3.2920     1.4980    -1.3980 hc         1 IHQ       0.042700
     31 H11         -3.4290    -0.1900    -0.9450 hc         1 IHQ       0.042700
     32 H12         -4.1460     0.4850     1.3560 hc         1 IHQ       0.038700
     33 H13         -3.9950     2.1710     0.9080 hc         1 IHQ       0.038700
     34 H14         -5.7440     1.8510    -0.8600 hc         1 IHQ       0.038200
     35 H15         -5.9020     0.1700    -0.3960 hc         1 IHQ       0.038200
     36 H16         -6.6080     0.8720     1.9000 hc         1 IHQ       0.036700
     37 H17         -6.4500     2.5510     1.4350 hc         1 IHQ       0.036700
     38 H18         -8.3950     0.5470     0.1650 hc         1 IHQ       0.032033
     39 H19         -8.8320     1.8230     1.2970 hc         1 IHQ       0.032033
     40 H20         -8.2410     2.2360    -0.3100 hc         1 IHQ       0.032033
@<TRIPOS>BOND
     1     1     3 ar  
     2     1     7 ar  
     3     1    15 1   
     4     2    10 1   
     5     2    16 1   
     6     2    17 1   
     7     2    22 1   
     8     3     4 ar  
     9     3    18 1   
    10     4     5 ar  
    11     4    19 1   
    12     5     6 ar  
    13     5    20 1   
    14     6     7 ar  
    15     6    12 1   
    16     7     8 1   
    17     8     9 1   
    18     8    14 2   
    19     9    10 2   
    20     9    11 1   
    21    10    12 1   
    22    12    13 1   
    23    13    21 1   
    24    22    23 1   
    25    22    28 1   
    26    22    29 1   
    27    23    24 1   
    28    23    30 1   
    29    23    31 1   
    30    24    25 1   
    31    24    32 1   
    32    24    33 1   
    33    25    26 1   
    34    25    34 1   
    35    25    35 1   
    36    26    27 1   
    37    26    36 1   
    38    26    37 1   
    39    27    38 1   
    40    27    39 1   
    41    27    40 1   
@<TRIPOS>SUBSTRUCTURE
     1 IHQ         1 TEMP              0 ****  ****    0 ROOT
