@<TRIPOS>MOLECULE
IHQ
   40    41     1     0     0
SMALL
No Charge or Current Charge


@<TRIPOS>ATOM
      1 C1           4.7720     0.8220     0.7420 ca         1 IHQ      -0.026000
      2 C13         -0.7600     0.6850    -1.0220 c3         1 IHQ      -0.063200
      3 C2           5.5280     1.9640     0.4390 ca         1 IHQ      -0.147000
      4 C3           4.9090     3.0670    -0.1630 ca         1 IHQ      -0.057000
      5 C4           3.5340     3.0270    -0.4450 ca         1 IHQ      -0.158000
      6 C5           2.7550     1.8870    -0.1390 ca         1 IHQ       0.319000
      7 C6           3.3910     0.7870     0.4450 ca         1 IHQ      -0.196600
      8 C7           2.5940    -0.4250     0.7090 c          1 IHQ       0.600900
      9 C8           1.2410    -0.4230     0.1390 cc         1 IHQ      -0.177400
     10 C9           0.6440     0.6910    -0.4400 cd         1 IHQ       0.224800
     11 I20          0.1810    -2.2870     0.3060 i          1 IHQ      -0.122800
     12 N10          1.3630     1.9160    -0.3830 na         1 IHQ      -0.447700
     13 O11          0.7000     3.1390    -0.6720 oh         1 IHQ      -0.368300
     14 O12          3.0610    -1.3820     1.3180 o          1 IHQ      -0.542100
     15 H1           5.2650    -0.0370     1.1960 ha         1 IHQ       0.142000
     16 H2          -0.8420     1.4300    -1.8220 hc         1 IHQ       0.078700
     17 H3          -0.9590    -0.2710    -1.5180 hc         1 IHQ       0.078700
     18 H5           6.5930     1.9890     0.6630 ha         1 IHQ       0.123000
     19 H6           5.4910     3.9540    -0.4050 ha         1 IHQ       0.118000
     20 H7           3.0770     3.8970    -0.9060 ha         1 IHQ       0.128000
     21 H8           0.3880     3.5210     0.1810 ho         1 IHQ       0.453000
     22 C10         -1.8580     0.9540     0.0340 c3         1 IHQ      -0.071400
     23 C11         -3.2860     0.9010    -0.5510 c3         1 IHQ      -0.075400
     24 C12         -4.3810     1.1650     0.5060 c3         1 IHQ      -0.074400
     25 C14         -5.8100     1.1100    -0.0780 c3         1 IHQ      -0.075400
     26 C15         -6.9050     1.3740     0.9780 c3         1 IHQ      -0.075400
     27 C16         -8.3300     1.3190     0.3960 c3         1 IHQ      -0.089100
     28 H4          -1.7730     0.2160     0.8410 hc         1 IHQ       0.045200
     29 H9          -1.6900     1.9380     0.4870 hc         1 IHQ       0.045200
     30 H10         -3.3740     1.6420    -1.3550 hc         1 IHQ       0.042700
     31 H11         -3.4530    -0.0850    -1.0040 hc         1 IHQ       0.042700
     32 H12         -4.2920     0.4240     1.3100 hc         1 IHQ       0.038700
     33 H13         -4.2140     2.1510     0.9580 hc         1 IHQ       0.038700
     34 H14         -5.8990     1.8520    -0.8820 hc         1 IHQ       0.038200
     35 H15         -5.9760     0.1250    -0.5310 hc         1 IHQ       0.038200
     36 H16         -6.8200     0.6330     1.7830 hc         1 IHQ       0.036700
     37 H17         -6.7430     2.3600     1.4320 hc         1 IHQ       0.036700
     38 H18         -8.5360     0.3320    -0.0350 hc         1 IHQ       0.032033
     39 H19         -9.0710     1.5120     1.1810 hc         1 IHQ       0.032033
     40 H20         -8.4580     2.0740    -0.3890 hc         1 IHQ       0.032033
@<TRIPOS>BOND
     1     1     3 ar  
     2     1     7 ar  
     3     1    15 1   
     4     2    10 1   
     5     2    16 1   
     6     2    17 1   
     7     2    22 1   
     8     3     4 ar  
     9     3    18 1   
    10     4     5 ar  
    11     4    19 1   
    12     5     6 ar  
    13     5    20 1   
    14     6     7 ar  
    15     6    12 1   
    16     7     8 1   
    17     8     9 1   
    18     8    14 2   
    19     9    10 2   
    20     9    11 1   
    21    10    12 1   
    22    12    13 1   
    23    13    21 1   
    24    22    23 1   
    25    22    28 1   
    26    22    29 1   
    27    23    24 1   
    28    23    30 1   
    29    23    31 1   
    30    24    25 1   
    31    24    32 1   
    32    24    33 1   
    33    25    26 1   
    34    25    34 1   
    35    25    35 1   
    36    26    27 1   
    37    26    36 1   
    38    26    37 1   
    39    27    38 1   
    40    27    39 1   
    41    27    40 1   
@<TRIPOS>SUBSTRUCTURE
     1 IHQ         1 TEMP              0 ****  ****    0 ROOT
