@<TRIPOS>MOLECULE
IHR
   25    27     1     0     0
SMALL
bcc


@<TRIPOS>ATOM
      1 C10         51.7030     2.1960    -5.3140 cx         1 IHR      -0.134400
      2 C02         49.4230    -4.4510    -4.7250 cc         1 IHR      -0.090300
      3 C05         49.9700    -2.3330    -5.0700 ca         1 IHR      -0.327600
      4 C06         49.7470    -0.9220    -5.0440 ca         1 IHR       0.759200
      5 C08         50.4940     1.3450    -5.5160 cx         1 IHR       0.179500
      6 C09         50.6480     2.1290    -4.2520 cx         1 IHR      -0.134400
      7 C12         47.6860    -1.3780    -4.1250 ca         1 IHR       0.675900
      8 C14         48.9400    -3.1540    -4.5770 ca         1 IHR       0.258300
      9 N03         50.6430    -4.2890    -5.2690 na         1 IHR       0.061800
     10 N04         51.0140    -3.0380    -5.4940 nc         1 IHR      -0.264400
     11 N07         50.6760    -0.0680    -5.4870 nu         1 IHR      -0.842900
     12 N11         48.5970    -0.4830    -4.5720 nb         1 IHR      -0.815000
     13 N13         47.7640    -2.6780    -4.0880 nb         1 IHR      -0.694000
     14 H1          52.6440     1.6960    -5.1210 hc         1 IHR       0.078450
     15 H2          51.7870     3.0960    -5.9090 hc         1 IHR       0.078450
     16 H3          49.1020    -6.0690    -3.3640 hc         1 IHR       0.056367
     17 H4          47.7480    -5.7140    -4.4270 hc         1 IHR       0.056367
     18 H5          49.1660    -6.5500    -5.0580 hc         1 IHR       0.056367
     19 H6          49.7510     1.6960    -6.2250 h1         1 IHR       0.091700
     20 H7          49.9990     2.9830    -4.1090 hc         1 IHR       0.078450
     21 H8          50.8780     1.5780    -3.3490 hc         1 IHR       0.078450
     22 H9          46.7690    -0.9350    -3.7500 h5         1 IHR       0.041100
     23 H10         51.2760    -5.0360    -5.5180 hn         1 IHR       0.320700
     24 H11         51.5060    -0.4540    -5.9100 hn         1 IHR       0.456800
     25 C01         48.8340    -5.7670    -4.3770 c3         1 IHR      -0.025900
@<TRIPOS>BOND
     1     1     5 1   
     2     1     6 1   
     3     1    14 1   
     4     1    15 1   
     5     2     8 2   
     6     2     9 1   
     7     2    25 1   
     8     3     4 ar  
     9     3     8 ar  
    10     3    10 2   
    11     4    11 1   
    12     4    12 ar  
    13     5     6 1   
    14     5    11 1   
    15     5    19 1   
    16     6    20 1   
    17     6    21 1   
    18     7    12 ar  
    19     7    13 ar  
    20     7    22 1   
    21     8    13 ar  
    22     9    10 1   
    23     9    23 1   
    24    11    24 1   
    25    16    25 1   
    26    17    25 1   
    27    18    25 1   
@<TRIPOS>SUBSTRUCTURE
     1 IHR         1 TEMP              0 ****  ****    0 ROOT
