@<TRIPOS>MOLECULE
IHR
   25    27     1     0     0
SMALL
No Charge or Current Charge


@<TRIPOS>ATOM
      1 C10         51.7260     2.2290    -5.4160 cx         1 IHR      -0.134400
      2 C02         49.4620    -4.4800    -4.7340 cc         1 IHR      -0.090300
      3 C05         49.9250    -2.3230    -5.0490 ca         1 IHR      -0.197000
      4 C06         49.6510    -0.9410    -5.0190 ca         1 IHR       0.430900
      5 C08         50.4600     1.4130    -5.4820 cx         1 IHR       0.179500
      6 C09         50.8060     2.1670    -4.2220 cx         1 IHR      -0.134400
      7 C12         47.5690    -1.4210    -4.1480 ca         1 IHR       0.149900
      8 C14         48.9420    -3.1670    -4.6010 ca         1 IHR      -0.070000
      9 N03         50.7450    -4.3360    -5.2590 na         1 IHR       0.011500
     10 N04         51.0830    -2.9900    -5.4760 nc         1 IHR      -0.264400
     11 N07         50.5950    -0.0180    -5.4550 nu         1 IHR      -0.898100
     12 N11         48.4610    -0.4850    -4.5650 nb         1 IHR      -0.289000
     13 N13         47.7450    -2.7650    -4.1400 nb         1 IHR      -0.168000
     14 H1          52.6760     1.7050    -5.3510 hc         1 IHR       0.078450
     15 H2          51.7560     3.1550    -5.9860 hc         1 IHR       0.078450
     16 H3          48.8500    -5.9680    -3.3030 hc         1 IHR       0.056367
     17 H4          47.7540    -5.7930    -4.6860 hc         1 IHR       0.056367
     18 H5          49.3030    -6.6310    -4.8850 hc         1 IHR       0.056367
     19 H6          49.6390     1.7950    -6.0950 h1         1 IHR       0.091700
     20 H7          50.2150     3.0480    -3.9880 hc         1 IHR       0.078450
     21 H8          51.1310     1.5930    -3.3580 hc         1 IHR       0.078450
     22 H9          46.6120    -1.0530    -3.7820 h5         1 IHR       0.041100
     23 H10         51.3990    -5.0820    -5.4770 hn         1 IHR       0.371000
     24 H11         51.4510    -0.4610    -5.7890 hn         1 IHR       0.512000
     25 C01         48.8080    -5.7900    -4.3840 c3         1 IHR      -0.025900
@<TRIPOS>BOND
     1     1     5 1   
     2     1     6 1   
     3     1    14 1   
     4     1    15 1   
     5     2     8 2   
     6     2     9 1   
     7     2    25 1   
     8     3     4 ar  
     9     3     8 ar  
    10     3    10 2   
    11     4    11 1   
    12     4    12 ar  
    13     5     6 1   
    14     5    11 1   
    15     5    19 1   
    16     6    20 1   
    17     6    21 1   
    18     7    12 ar  
    19     7    13 ar  
    20     7    22 1   
    21     8    13 ar  
    22     9    10 1   
    23     9    23 1   
    24    11    24 1   
    25    16    25 1   
    26    17    25 1   
    27    18    25 1   
@<TRIPOS>SUBSTRUCTURE
     1 IHR         1 TEMP              0 ****  ****    0 ROOT
