@<TRIPOS>MOLECULE
IHS
   42    42     1     0     0
SMALL
abcg2


@<TRIPOS>ATOM
      1 C1          -1.0370     1.0380     0.5830 c6         1 IHS       0.202300
      2 O1          -1.9730     2.0360     0.2460 os         1 IHS      -0.547533
      3 S1          -2.6850     2.8590     1.4670 s6         1 IHS       1.523800
      4 C2           0.3790     1.5330     0.3160 c6         1 IHS       0.202300
      5 O2          -1.5940     3.3970     2.2870 o          1 IHS      -0.745700
      6 S2           0.8910     3.3690    -1.5390 s6         1 IHS       1.523800
      7 C3           1.3740     0.4370     0.6740 c6         1 IHS       0.202300
      8 O3          -3.4440     3.8610     0.7220 o          1 IHS      -0.745700
      9 C4           1.1120    -0.8390    -0.1230 c6         1 IHS       0.202300
     10 O4          -3.5110     1.8850     2.1860 o          1 IHS      -0.745700
     11 C5          -0.3240    -1.3160     0.1110 c6         1 IHS       0.202300
     12 C6          -1.3410    -0.2210    -0.2280 c6         1 IHS       0.202300
     13 O12          0.4940     1.8430    -1.0640 os         1 IHS      -0.547533
     14 O13          2.6910     0.8570     0.4090 os         1 IHS      -0.547533
     15 O14          1.9970    -1.8430     0.3260 os         1 IHS      -0.547533
     16 O15         -0.5730    -2.4410    -0.6990 os         1 IHS      -0.547533
     17 O16         -2.6310    -0.6790     0.1110 os         1 IHS      -0.547533
     18 O22          0.0760     4.2750    -0.7290 o          1 IHS      -0.745700
     19 O23          2.8750     2.5300     2.2350 o          1 IHS      -0.745700
     20 O24          3.6270    -3.5740     0.1260 o          1 IHS      -0.745700
     21 O25          0.2210    -4.2910     0.7680 o          1 IHS      -0.745700
     22 O26         -4.8990    -1.3150    -0.2700 o          1 IHS      -0.745700
     23 O32          2.3300     3.5020    -1.3140 o          1 IHS      -0.745700
     24 O33          3.7090     0.2610     2.5880 o          1 IHS      -0.745700
     25 O34          2.2520    -3.0340    -1.8490 o          1 IHS      -0.745700
     26 O35         -2.1220    -3.6450     0.8350 o          1 IHS      -0.745700
     27 O36         -3.9240     0.4470    -1.6870 o          1 IHS      -0.745700
     28 O42          0.5070     3.3030    -2.9500 o          1 IHS      -0.745700
     29 O43          4.8440     1.7360     0.9790 o          1 IHS      -0.745700
     30 O44          3.9920    -1.4870    -1.1190 o          1 IHS      -0.745700
     31 O45         -1.2020    -4.6990    -1.1940 o          1 IHS      -0.745700
     32 O46         -3.2290    -1.8710    -1.9930 o          1 IHS      -0.745700
     33 H1          -1.1050     0.7730     1.6470 h1         1 IHS       0.058367
     34 H2           0.5720     2.4050     0.9440 h1         1 IHS       0.058367
     35 H3           1.2380     0.1990     1.7390 h1         1 IHS       0.058367
     36 H4           1.2500    -0.6340    -1.1900 h1         1 IHS       0.058367
     37 H5          -0.4330    -1.5610     1.1760 h1         1 IHS       0.058367
     38 H6          -1.2700     0.0120    -1.2970 h1         1 IHS       0.058367
     39 S3           3.5990     1.3900     1.6590 s6         1 IHS       1.523800
     40 S4           3.0480    -2.5360    -0.7260 s6         1 IHS       1.523800
     41 S5          -0.9530    -3.8840    -0.0070 s6         1 IHS       1.523800
     42 S6          -3.7570    -0.8690    -1.0650 s6         1 IHS       1.523800
@<TRIPOS>BOND
     1     1     2 1   
     2     1     4 1   
     3     1    12 1   
     4     1    33 1   
     5     2     3 1   
     6     3     5 1   
     7     3     8 1   
     8     3    10 1   
     9     4     7 1   
    10     4    13 1   
    11     4    34 1   
    12     6    13 1   
    13     6    18 1   
    14     6    23 1   
    15     6    28 1   
    16     7     9 1   
    17     7    14 1   
    18     7    35 1   
    19     9    11 1   
    20     9    15 1   
    21     9    36 1   
    22    11    12 1   
    23    11    16 1   
    24    11    37 1   
    25    12    17 1   
    26    12    38 1   
    27    14    39 1   
    28    15    40 1   
    29    16    41 1   
    30    17    42 1   
    31    19    39 1   
    32    20    40 1   
    33    21    41 1   
    34    22    42 1   
    35    24    39 1   
    36    25    40 1   
    37    26    41 1   
    38    27    42 1   
    39    29    39 1   
    40    30    40 1   
    41    31    41 1   
    42    32    42 1   
@<TRIPOS>SUBSTRUCTURE
     1 IHS         1 TEMP              0 ****  ****    0 ROOT
