@<TRIPOS>MOLECULE
IHS
   42    42     1     0     0
SMALL
No Charge or Current Charge


@<TRIPOS>ATOM
      1 C1          -1.0480     1.0380     0.5740 c6         1 IHS       0.202300
      2 O1          -2.0270     2.0870     0.3710 os         1 IHS      -0.547533
      3 S1          -2.6320     2.8490     1.6960 s6         1 IHS       1.523800
      4 C2           0.3860     1.5550     0.2100 c6         1 IHS       0.202300
      5 O2          -1.4420     3.2690     2.4500 o          1 IHS      -0.745700
      6 S2           0.8850     3.2880    -1.7860 s6         1 IHS       1.523800
      7 C3           1.3850     0.4390     0.6680 c6         1 IHS       0.202300
      8 O3          -3.4270     3.9590     1.1490 o          1 IHS      -0.745700
      9 C4           1.1340    -0.8580    -0.1850 c6         1 IHS       0.202300
     10 O4          -3.4270     1.8190     2.3790 o          1 IHS      -0.745700
     11 C5          -0.3310    -1.3580     0.1390 c6         1 IHS       0.202300
     12 C6          -1.3650    -0.2410    -0.2870 c6         1 IHS       0.202300
     13 O12          0.4940     1.7910    -1.2220 os         1 IHS      -0.547533
     14 O13          2.7520     0.9080     0.5520 os         1 IHS      -0.547533
     15 O14          2.1060    -1.8760     0.1740 os         1 IHS      -0.547533
     16 O15         -0.6060    -2.6020    -0.5600 os         1 IHS      -0.547533
     17 O16         -2.7220    -0.6830    -0.0200 os         1 IHS      -0.547533
     18 O22          0.1070     4.2290    -0.9680 o          1 IHS      -0.745700
     19 O23          2.6510     2.4080     2.4970 o          1 IHS      -0.745700
     20 O24          3.7120    -3.6650    -0.3580 o          1 IHS      -0.745700
     21 O25          0.0860    -4.0160     1.3560 o          1 IHS      -0.745700
     22 O26         -5.0280    -1.2780    -0.6510 o          1 IHS      -0.745700
     23 O32          2.3370     3.3870    -1.5890 o          1 IHS      -0.745700
     24 O33          3.6200     0.1580     2.7320 o          1 IHS      -0.745700
     25 O34          2.2290    -2.7900    -2.1280 o          1 IHS      -0.745700
     26 O35         -2.2990    -3.7280     0.8460 o          1 IHS      -0.745700
     27 O36         -3.9190     0.6390    -1.7360 o          1 IHS      -0.745700
     28 O42          0.4810     3.2440    -3.2000 o          1 IHS      -0.745700
     29 O43          4.8270     1.8890     1.4480 o          1 IHS      -0.745700
     30 O44          4.0620    -1.3990    -1.2590 o          1 IHS      -0.745700
     31 O45         -0.8750    -5.0490    -0.6700 o          1 IHS      -0.745700
     32 O46         -3.1850    -1.6500    -2.2520 o          1 IHS      -0.745700
     33 H1          -1.0600     0.7390     1.6340 h1         1 IHS       0.058367
     34 H2           0.5950     2.4750     0.7740 h1         1 IHS       0.058367
     35 H3           1.1820     0.1900     1.7220 h1         1 IHS       0.058367
     36 H4           1.2140    -0.6180    -1.2560 h1         1 IHS       0.058367
     37 H5          -0.4210    -1.5160     1.2240 h1         1 IHS       0.058367
     38 H6          -1.2450    -0.0160    -1.3570 h1         1 IHS       0.058367
     39 S3           3.5290     1.3810     1.9200 s6         1 IHS       1.523800
     40 S4           3.1060    -2.4810    -0.9880 s6         1 IHS       1.523800
     41 S5          -0.9490    -3.9570     0.3140 s6         1 IHS       1.523800
     42 S6          -3.8000    -0.7490    -1.2650 s6         1 IHS       1.523800
@<TRIPOS>BOND
     1     1     2 1   
     2     1     4 1   
     3     1    12 1   
     4     1    33 1   
     5     2     3 1   
     6     3     5 1   
     7     3     8 1   
     8     3    10 1   
     9     4     7 1   
    10     4    13 1   
    11     4    34 1   
    12     6    13 1   
    13     6    18 1   
    14     6    23 1   
    15     6    28 1   
    16     7     9 1   
    17     7    14 1   
    18     7    35 1   
    19     9    11 1   
    20     9    15 1   
    21     9    36 1   
    22    11    12 1   
    23    11    16 1   
    24    11    37 1   
    25    12    17 1   
    26    12    38 1   
    27    14    39 1   
    28    15    40 1   
    29    16    41 1   
    30    17    42 1   
    31    19    39 1   
    32    20    40 1   
    33    21    41 1   
    34    22    42 1   
    35    24    39 1   
    36    25    40 1   
    37    26    41 1   
    38    27    42 1   
    39    29    39 1   
    40    30    40 1   
    41    31    41 1   
    42    32    42 1   
@<TRIPOS>SUBSTRUCTURE
     1 IHS         1 TEMP              0 ****  ****    0 ROOT
