@<TRIPOS>MOLECULE
IHT
   95    96     1     0     0
SMALL
abcg2


@<TRIPOS>ATOM
      1 C02        215.3810   160.0330   141.4670 c6         1 IHT       0.001200
      2 C03        197.5560   160.8180   157.4170 c6         1 IHT       0.004200
      3 C04        216.8180   159.6490   141.0980 c6         1 IHT      -0.068400
      4 C05        196.3850   161.4180   158.2050 c6         1 IHT      -0.069400
      5 C06        217.4020   158.6090   142.0340 c6         1 IHT      -0.071400
      6 C07        215.2350   160.2330   142.9770 ce         1 IHT      -0.081200
      7 C08        195.3460   160.3830   158.5820 c6         1 IHT       0.174300
      8 C09        217.4610   159.1830   143.4360 c6         1 IHT      -0.041200
      9 C10        216.1980   159.8860   143.8540 c2         1 IHT      -0.097400
     10 C11        197.9870   159.4880   158.0290 ce         1 IHT       0.026100
     11 C12        195.9870   159.3610   159.5060 c6         1 IHT      -0.082200
     12 C13        214.4070   158.9380   141.0110 c3         1 IHT      -0.081600
     13 C14        215.0490   161.3250   140.7060 c3         1 IHT      -0.081600
     14 C15        197.2870   158.8320   158.9770 c2         1 IHT      -0.079400
     15 C17        197.1550   160.5940   155.9530 c3         1 IHT      -0.081600
     16 C18        213.9560   160.8140   143.4090 ce         1 IHT      -0.157000
     17 C19        216.1570   160.1730   145.3280 c3         1 IHT      -0.056900
     18 C20        197.7270   157.5370   159.5790 c3         1 IHT      -0.056900
     19 C21        199.1920   158.9340   157.5180 cg         1 IHT      -0.133300
     20 C22        213.1920   160.3360   144.4050 cf         1 IHT      -0.190000
     21 C23        211.9270   160.8930   144.8500 cf         1 IHT      -0.057200
     22 C24        200.2150   158.4880   157.0420 ch         1 IHT      -0.171300
     23 C25        211.3920   162.0960   144.1340 c3         1 IHT      -0.056900
     24 C26        201.4100   157.9170   156.5380 cf         1 IHT       0.047100
     25 C27        211.3030   160.2960   145.8970 ce         1 IHT      -0.185000
     26 C28        201.8870   156.6890   157.2620 c3         1 IHT      -0.049900
     27 C29        202.0260   158.4960   155.4780 ce         1 IHT      -0.167000
     28 C30        210.0640   160.6810   146.5130 ce         1 IHT      -0.166000
     29 C31        203.2420   158.0630   154.8490 ce         1 IHT      -0.175000
     30 C32        209.5450   160.0230   147.5750 cf         1 IHT      -0.179000
     31 C33        208.3160   160.3560   148.2570 cf         1 IHT      -0.058200
     32 C34        203.7680   158.7080   153.7820 cf         1 IHT      -0.169000
     33 C35        204.9840   158.3520   153.0910 cf         1 IHT      -0.066200
     34 C36        207.5160   161.5180   147.7500 c3         1 IHT      -0.056900
     35 C37        207.9520   159.5970   149.3260 ce         1 IHT      -0.180000
     36 C38        205.3560   159.1080   152.0230 ce         1 IHT      -0.172000
     37 C39        205.7650   157.1740   153.5910 c3         1 IHT      -0.055900
     38 C40        206.7900   159.7530   150.1480 ce         1 IHT      -0.168000
     39 C41        206.5160   158.9430   151.2000 cf         1 IHT      -0.174000
     40 O01        194.2590   161.0440   159.1930 oh         1 IHT      -0.658000
     41 H1         216.8360   159.3010   140.0610 hc         1 IHT       0.041200
     42 H2         217.4490   160.5450   141.1340 hc         1 IHT       0.041200
     43 H3         196.7610   161.8820   159.1250 hc         1 IHT       0.056700
     44 H4         195.9350   162.2170   157.6090 hc         1 IHT       0.056700
     45 H5         216.7920   157.7020   142.0260 hc         1 IHT       0.042200
     46 H6         218.4000   158.3120   141.7050 hc         1 IHT       0.042200
     47 H8         195.0110   159.8600   157.6740 h1         1 IHT       0.034700
     48 H9         217.6750   158.3940   144.1660 hc         1 IHT       0.045200
     49 H10        218.3000   159.8850   143.5230 hc         1 IHT       0.045200
     50 H12        195.3040   158.5220   159.6820 hc         1 IHT       0.054700
     51 H13        196.1610   159.8190   160.4880 hc         1 IHT       0.054700
     52 H14        214.6230   157.9800   141.4860 hc         1 IHT       0.034033
     53 H15        213.3760   159.2000   141.2580 hc         1 IHT       0.034033
     54 H16        214.4640   158.7980   139.9290 hc         1 IHT       0.034033
     55 H17        213.9950   161.5970   140.7690 hc         1 IHT       0.034033
     56 H18        215.6400   162.1670   141.0730 hc         1 IHT       0.034033
     57 H19        215.2820   161.1940   139.6470 hc         1 IHT       0.034033
     58 H20        199.0700   161.9700   158.4810 hc         1 IHT       0.037867
     59 H21        199.5630   161.4830   156.8570 hc         1 IHT       0.037867
     60 H22        198.3900   162.7810   157.0690 hc         1 IHT       0.037867
     61 H23        196.3020   159.9210   155.8630 hc         1 IHT       0.037867
     62 H24        196.8870   161.5430   155.4840 hc         1 IHT       0.037867
     63 H25        197.9780   160.1630   155.3810 hc         1 IHT       0.037867
     64 H26        213.5910   161.6650   142.8430 ha         1 IHT       0.174000
     65 H27        217.1470   160.4910   145.6670 hc         1 IHT       0.041033
     66 H28        215.4400   160.9430   145.6000 hc         1 IHT       0.041033
     67 H29        215.9120   159.2740   145.9000 hc         1 IHT       0.041033
     68 H30        197.6870   157.5940   160.6700 hc         1 IHT       0.045033
     69 H31        197.0450   156.7330   159.2890 hc         1 IHT       0.045033
     70 H32        198.7350   157.2470   159.2900 hc         1 IHT       0.045033
     71 H33        213.5270   159.4500   144.9370 ha         1 IHT       0.173000
     72 H34        210.4340   162.4310   144.5210 hc         1 IHT       0.042033
     73 H35        212.0880   162.9350   144.2070 hc         1 IHT       0.042033
     74 H36        211.2620   161.8890   143.0690 hc         1 IHT       0.042033
     75 H37        211.7920   159.4280   146.3340 ha         1 IHT       0.169000
     76 H38        202.1020   156.9230   158.3070 hc         1 IHT       0.044700
     77 H39        201.1110   155.9220   157.2630 hc         1 IHT       0.044700
     78 H40        202.7830   156.2570   156.8250 hc         1 IHT       0.044700
     79 H41        201.5600   159.3810   155.0540 ha         1 IHT       0.176000
     80 H42        209.5330   161.5380   146.1140 ha         1 IHT       0.173000
     81 H43        203.7510   157.1930   155.2470 ha         1 IHT       0.175000
     82 H44        210.0930   159.1690   147.9650 ha         1 IHT       0.170000
     83 H45        203.2370   159.5770   153.3990 ha         1 IHT       0.170000
     84 H46        206.6180   161.7060   148.3320 hc         1 IHT       0.042367
     85 H47        208.1090   162.4340   147.7630 hc         1 IHT       0.042367
     86 H48        207.2090   161.3560   146.7150 hc         1 IHT       0.042367
     87 H49        208.6130   158.7790   149.6010 ha         1 IHT       0.169000
     88 H50        204.7050   159.9360   151.7520 ha         1 IHT       0.169000
     89 H51        206.0850   157.3280   154.6240 hc         1 IHT       0.042700
     90 H52        205.1540   156.2690   153.5830 hc         1 IHT       0.042700
     91 H53        206.6550   156.9680   153.0010 hc         1 IHT       0.042700
     92 H54        206.0920   160.5540   149.9270 ha         1 IHT       0.172000
     93 H55        207.2130   158.1400   151.4220 ha         1 IHT       0.172000
     94 H56        193.5880   160.3870   159.4050 ho         1 IHT       0.442000
     95 C16        198.7170   161.8160   157.4600 c3         1 IHT      -0.081600
@<TRIPOS>BOND
     1     1     3 1   
     2     1     6 1   
     3     1    12 1   
     4     1    13 1   
     5     2     4 1   
     6     2    10 1   
     7     2    15 1   
     8     2    95 1   
     9     3     5 1   
    10     3    41 1   
    11     3    42 1   
    12     4     7 1   
    13     4    43 1   
    14     4    44 1   
    15     5     8 1   
    16     5    45 1   
    17     5    46 1   
    18     6     9 2   
    19     6    16 1   
    20     7    11 1   
    21     7    40 1   
    22     7    47 1   
    23     8     9 1   
    24     8    48 1   
    25     8    49 1   
    26     9    17 1   
    27    10    14 2   
    28    10    19 1   
    29    11    14 1   
    30    11    50 1   
    31    11    51 1   
    32    12    52 1   
    33    12    53 1   
    34    12    54 1   
    35    13    55 1   
    36    13    56 1   
    37    13    57 1   
    38    14    18 1   
    39    15    61 1   
    40    15    62 1   
    41    15    63 1   
    42    16    20 2   
    43    16    64 1   
    44    17    65 1   
    45    17    66 1   
    46    17    67 1   
    47    18    68 1   
    48    18    69 1   
    49    18    70 1   
    50    19    22 3   
    51    20    21 1   
    52    20    71 1   
    53    21    23 1   
    54    21    25 2   
    55    22    24 1   
    56    23    72 1   
    57    23    73 1   
    58    23    74 1   
    59    24    26 1   
    60    24    27 2   
    61    25    28 1   
    62    25    75 1   
    63    26    76 1   
    64    26    77 1   
    65    26    78 1   
    66    27    29 1   
    67    27    79 1   
    68    28    30 2   
    69    28    80 1   
    70    29    32 2   
    71    29    81 1   
    72    30    31 1   
    73    30    82 1   
    74    31    34 1   
    75    31    35 2   
    76    32    33 1   
    77    32    83 1   
    78    33    36 2   
    79    33    37 1   
    80    34    84 1   
    81    34    85 1   
    82    34    86 1   
    83    35    38 1   
    84    35    87 1   
    85    36    39 1   
    86    36    88 1   
    87    37    89 1   
    88    37    90 1   
    89    37    91 1   
    90    38    39 2   
    91    38    92 1   
    92    39    93 1   
    93    40    94 1   
    94    58    95 1   
    95    59    95 1   
    96    60    95 1   
@<TRIPOS>SUBSTRUCTURE
     1 IHT         1 TEMP              0 ****  ****    0 ROOT
