@<TRIPOS>MOLECULE
IHT
   95    96     1     0     0
SMALL
No Charge or Current Charge


@<TRIPOS>ATOM
      1 C02        215.5440   160.4280   141.4700 c6         1 IHT       0.001200
      2 C03        197.3600   160.6160   157.1590 c6         1 IHT       0.004200
      3 C04        216.9670   159.9950   141.0030 c6         1 IHT      -0.068400
      4 C05        196.2650   161.4540   157.8840 c6         1 IHT      -0.069400
      5 C06        217.4200   158.6870   141.6770 c6         1 IHT      -0.071400
      6 C07        215.4110   160.3330   143.0190 ce         1 IHT      -0.081200
      7 C08        195.2850   160.5560   158.6630 c6         1 IHT       0.174300
      8 C09        217.4910   158.8810   143.2030 c6         1 IHT      -0.041200
      9 C10        216.2780   159.6090   143.7870 c2         1 IHT      -0.097400
     10 C11        198.0090   159.5890   158.1350 ce         1 IHT       0.026100
     11 C12        196.0510   159.7740   159.7510 c6         1 IHT      -0.082200
     12 C13        214.4530   159.5120   140.8310 c3         1 IHT      -0.081600
     13 C14        215.2890   161.8810   140.9540 c3         1 IHT      -0.081600
     14 C15        197.3860   159.1840   159.2830 c2         1 IHT      -0.079400
     15 C17        196.7470   159.8310   155.9550 c3         1 IHT      -0.081600
     16 C18        214.1970   160.9660   143.5780 ce         1 IHT      -0.157000
     17 C19        216.1950   159.4690   145.3020 c3         1 IHT      -0.056900
     18 C20        197.9240   158.1530   160.2740 c3         1 IHT      -0.056900
     19 C21        199.2620   159.0030   157.7400 cg         1 IHT      -0.133300
     20 C22        213.2720   160.3280   144.3520 cf         1 IHT      -0.190000
     21 C23        212.0510   160.8960   144.9300 cf         1 IHT      -0.057200
     22 C24        200.3100   158.5210   157.3430 ch         1 IHT      -0.171300
     23 C25        211.5550   162.2240   144.3650 c3         1 IHT      -0.056900
     24 C26        201.5320   157.9990   156.8170 cf         1 IHT       0.047100
     25 C27        211.3720   160.2060   145.8940 ce         1 IHT      -0.185000
     26 C28        202.1960   156.9700   157.7220 c3         1 IHT      -0.049900
     27 C29        202.0020   158.4280   155.6080 ce         1 IHT      -0.167000
     28 C30        210.1380   160.6160   146.5840 ce         1 IHT      -0.166000
     29 C31        203.2320   158.0060   154.9160 ce         1 IHT      -0.175000
     30 C32        209.4850   159.8390   147.4950 cf         1 IHT      -0.179000
     31 C33        208.2650   160.1730   148.2370 cf         1 IHT      -0.058200
     32 C34        203.6210   158.4910   153.7020 cf         1 IHT      -0.169000
     33 C35        204.8280   158.1400   152.9460 cf         1 IHT      -0.066200
     34 C36        207.4330   161.3510   147.7350 c3         1 IHT      -0.056900
     35 C37        207.8800   159.4000   149.2960 ce         1 IHT      -0.180000
     36 C38        205.2380   158.9540   151.9230 ce         1 IHT      -0.172000
     37 C39        205.5290   156.8300   153.3090 c3         1 IHT      -0.055900
     38 C40        206.6950   159.5810   150.1510 ce         1 IHT      -0.168000
     39 C41        206.3450   158.7280   151.1530 cf         1 IHT      -0.174000
     40 O01        194.2600   161.3540   159.2620 oh         1 IHT      -0.658000
     41 H1         216.9920   159.8780   139.9110 hc         1 IHT       0.041200
     42 H2         217.6930   160.7840   141.2420 hc         1 IHT       0.041200
     43 H3         196.7350   162.1620   158.5800 hc         1 IHT       0.056700
     44 H4         195.7120   162.0630   157.1550 hc         1 IHT       0.056700
     45 H5         216.7330   157.8670   141.4320 hc         1 IHT       0.042200
     46 H6         218.4060   158.3870   141.2950 hc         1 IHT       0.042200
     47 H8         194.8280   159.8370   157.9680 h1         1 IHT       0.034700
     48 H9         217.6070   157.8990   143.6820 hc         1 IHT       0.045200
     49 H10        218.3970   159.4510   143.4530 hc         1 IHT       0.045200
     50 H12        195.4040   158.9720   160.1330 hc         1 IHT       0.054700
     51 H13        196.2520   160.4370   160.6040 hc         1 IHT       0.054700
     52 H14        214.5250   158.4800   141.1940 hc         1 IHT       0.034033
     53 H15        213.4420   159.8640   141.0720 hc         1 IHT       0.034033
     54 H16        214.5380   159.4870   139.7380 hc         1 IHT       0.034033
     55 H17        214.2490   162.1970   141.0920 hc         1 IHT       0.034033
     56 H18        215.9310   162.6040   141.4720 hc         1 IHT       0.034033
     57 H19        215.5020   161.9630   139.8810 hc         1 IHT       0.034033
     58 H20        198.9670   162.1200   157.3740 hc         1 IHT       0.037867
     59 H21        199.1640   161.0960   155.9440 hc         1 IHT       0.037867
     60 H22        197.9500   162.3720   155.9500 hc         1 IHT       0.037867
     61 H23        196.0470   159.0550   156.2850 hc         1 IHT       0.037867
     62 H24        196.2070   160.4990   155.2720 hc         1 IHT       0.037867
     63 H25        197.5250   159.3260   155.3680 hc         1 IHT       0.037867
     64 H26        214.0460   162.0160   143.3340 ha         1 IHT       0.174000
     65 H27        217.1910   159.5100   145.7590 hc         1 IHT       0.041033
     66 H28        215.6070   160.2690   145.7640 hc         1 IHT       0.041033
     67 H29        215.7420   158.5110   145.5830 hc         1 IHT       0.041033
     68 H30        197.9280   158.5560   161.2930 hc         1 IHT       0.045033
     69 H31        197.2970   157.2540   160.2780 hc         1 IHT       0.045033
     70 H32        198.9490   157.8320   160.0590 hc         1 IHT       0.045033
     71 H33        213.4600   159.2770   144.5760 ha         1 IHT       0.173000
     72 H34        210.4640   162.3080   144.3990 hc         1 IHT       0.042033
     73 H35        211.9750   163.0710   144.9210 hc         1 IHT       0.042033
     74 H36        211.8230   162.3470   143.3100 hc         1 IHT       0.042033
     75 H37        211.7850   159.2470   146.2110 ha         1 IHT       0.169000
     76 H38        202.4500   157.4080   158.6940 hc         1 IHT       0.044700
     77 H39        201.5260   156.1220   157.9090 hc         1 IHT       0.044700
     78 H40        203.1200   156.5580   157.3060 hc         1 IHT       0.044700
     79 H41        201.4020   159.1730   155.0810 ha         1 IHT       0.176000
     80 H42        209.7500   161.6090   146.3630 ha         1 IHT       0.173000
     81 H43        203.8660   157.2790   155.4190 ha         1 IHT       0.175000
     82 H44        209.9230   158.8630   147.7170 ha         1 IHT       0.170000
     83 H45        202.9780   159.2460   153.2430 ha         1 IHT       0.170000
     84 H46        206.3630   161.2140   147.9230 hc         1 IHT       0.042367
     85 H47        207.7420   162.2860   148.2180 hc         1 IHT       0.042367
     86 H48        207.5230   161.4860   146.6510 hc         1 IHT       0.042367
     87 H49        208.5200   158.5570   149.5630 ha         1 IHT       0.169000
     88 H50        204.6460   159.8480   151.7190 ha         1 IHT       0.169000
     89 H51        206.3820   157.0090   153.9740 hc         1 IHT       0.042700
     90 H52        204.8580   156.1210   153.8080 hc         1 IHT       0.042700
     91 H53        205.8960   156.2990   152.4240 hc         1 IHT       0.042700
     92 H54        206.0720   160.4590   149.9730 ha         1 IHT       0.172000
     93 H55        206.9790   157.8580   151.3290 ha         1 IHT       0.172000
     94 H56        193.6310   160.7320   159.6890 ho         1 IHT       0.442000
     95 C16        198.4230   161.6030   156.5730 c3         1 IHT      -0.081600
@<TRIPOS>BOND
     1     1     3 1   
     2     1     6 1   
     3     1    12 1   
     4     1    13 1   
     5     2     4 1   
     6     2    10 1   
     7     2    15 1   
     8     2    95 1   
     9     3     5 1   
    10     3    41 1   
    11     3    42 1   
    12     4     7 1   
    13     4    43 1   
    14     4    44 1   
    15     5     8 1   
    16     5    45 1   
    17     5    46 1   
    18     6     9 2   
    19     6    16 1   
    20     7    11 1   
    21     7    40 1   
    22     7    47 1   
    23     8     9 1   
    24     8    48 1   
    25     8    49 1   
    26     9    17 1   
    27    10    14 2   
    28    10    19 1   
    29    11    14 1   
    30    11    50 1   
    31    11    51 1   
    32    12    52 1   
    33    12    53 1   
    34    12    54 1   
    35    13    55 1   
    36    13    56 1   
    37    13    57 1   
    38    14    18 1   
    39    15    61 1   
    40    15    62 1   
    41    15    63 1   
    42    16    20 2   
    43    16    64 1   
    44    17    65 1   
    45    17    66 1   
    46    17    67 1   
    47    18    68 1   
    48    18    69 1   
    49    18    70 1   
    50    19    22 3   
    51    20    21 1   
    52    20    71 1   
    53    21    23 1   
    54    21    25 2   
    55    22    24 1   
    56    23    72 1   
    57    23    73 1   
    58    23    74 1   
    59    24    26 1   
    60    24    27 2   
    61    25    28 1   
    62    25    75 1   
    63    26    76 1   
    64    26    77 1   
    65    26    78 1   
    66    27    29 1   
    67    27    79 1   
    68    28    30 2   
    69    28    80 1   
    70    29    32 2   
    71    29    81 1   
    72    30    31 1   
    73    30    82 1   
    74    31    34 1   
    75    31    35 2   
    76    32    33 1   
    77    32    83 1   
    78    33    36 2   
    79    33    37 1   
    80    34    84 1   
    81    34    85 1   
    82    34    86 1   
    83    35    38 1   
    84    35    87 1   
    85    36    39 1   
    86    36    88 1   
    87    37    89 1   
    88    37    90 1   
    89    37    91 1   
    90    38    39 2   
    91    38    92 1   
    92    39    93 1   
    93    40    94 1   
    94    58    95 1   
    95    59    95 1   
    96    60    95 1   
@<TRIPOS>SUBSTRUCTURE
     1 IHT         1 TEMP              0 ****  ****    0 ROOT
