@<TRIPOS>MOLECULE
IHU
   35    36     1     0     0
SMALL
abcg2


@<TRIPOS>ATOM
      1 C51         18.6550    84.4090   102.1590 c3         1 IHU       0.155900
      2 O54         18.4750    85.3150   103.2450 os         1 IHU      -0.359100
      3 C19         17.2380    85.8650   103.4300 ca         1 IHU       0.058100
      4 C20         16.1180    85.5820   102.6640 ca         1 IHU      -0.131000
      5 C21         14.8970    86.1970   102.9380 ca         1 IHU      -0.133000
      6 C22         14.8030    87.1000   103.9860 ca         1 IHU       0.128100
      7 O55         13.5870    87.6860   104.2230 oh         1 IHU      -0.540100
      8 C23         15.9190    87.3970   104.7670 ca         1 IHU      -0.201000
      9 C18         17.1390    86.7850   104.4950 ca         1 IHU       0.001000
     10 N17         18.3190    87.0090   105.2170 ns         1 IHU      -0.137000
     11 C15         18.5230    87.8770   106.2300 c          1 IHU       0.663100
     12 O16         17.7040    88.6440   106.7160 o          1 IHU      -0.614100
     13 N14         19.8360    87.8730   106.7560 ns         1 IHU      -0.484500
     14 C12         20.9150    87.1050   106.4070 c          1 IHU       0.635700
     15 O13         20.8950    86.2800   105.5040 o          1 IHU      -0.556100
     16 C3          22.1300    87.3240   107.2490 ca         1 IHU      -0.169600
     17 C4          22.0340    87.2010   108.6370 ca         1 IHU      -0.051000
     18 C5          23.1520    87.2970   109.4520 ca         1 IHU      -0.153000
     19 C6          24.3720    87.5360   108.8490 ca         1 IHU       0.202000
     20 F10         25.4760    87.6290   109.6190 f          1 IHU      -0.168000
     21 C1          24.5170    87.6890   107.4810 ca         1 IHU      -0.153000
     22 C2          23.3860    87.5750   106.6870 ca         1 IHU       0.190000
     23 CL11        23.5750    87.8120   104.9720 cl         1 IHU      -0.164000
     24 H511        18.0220    83.5270   102.2770 h1         1 IHU       0.042367
     25 H512        19.7010    84.1160   102.1870 h1         1 IHU       0.042367
     26 H513        18.4320    84.8940   101.2060 h1         1 IHU       0.042367
     27 H20         16.1810    84.8800   101.8450 ha         1 IHU       0.121000
     28 H21         14.0250    85.9750   102.3380 ha         1 IHU       0.131000
     29 H55         13.6530    88.2820   104.9810 ho         1 IHU       0.465000
     30 H23         15.8440    88.1000   105.5820 ha         1 IHU       0.151000
     31 H17         19.1310    86.4660   104.9340 hn         1 IHU       0.212000
     32 H14         19.9610    88.5580   107.4880 hn         1 IHU       0.339500
     33 H4          21.0680    87.0030   109.0840 ha         1 IHU       0.131000
     34 H5          23.0820    87.1860   110.5250 ha         1 IHU       0.145000
     35 H1          25.4860    87.8980   107.0510 ha         1 IHU       0.155000
@<TRIPOS>BOND
     1     1     2 1   
     2     1    24 1   
     3     1    25 1   
     4     1    26 1   
     5     2     3 1   
     6     3     4 ar  
     7     3     9 ar  
     8     4     5 ar  
     9     4    27 1   
    10     5     6 ar  
    11     5    28 1   
    12     6     7 1   
    13     6     8 ar  
    14     7    29 1   
    15     8     9 ar  
    16     8    30 1   
    17     9    10 1   
    18    10    11 1   
    19    10    31 1   
    20    11    12 2   
    21    11    13 1   
    22    13    14 1   
    23    13    32 1   
    24    14    15 2   
    25    14    16 1   
    26    16    17 ar  
    27    16    22 ar  
    28    17    18 ar  
    29    17    33 1   
    30    18    19 ar  
    31    18    34 1   
    32    19    20 1   
    33    19    21 ar  
    34    21    22 ar  
    35    21    35 1   
    36    22    23 1   
@<TRIPOS>SUBSTRUCTURE
     1 IHU         1 TEMP              0 ****  ****    0 ROOT
