@<TRIPOS>MOLECULE
IHU
   35    36     1     0     0
SMALL
No Charge or Current Charge


@<TRIPOS>ATOM
      1 C51         18.6680    84.4890   101.9560 c3         1 IHU       0.155900
      2 O54         18.4470    85.3630   103.0790 os         1 IHU      -0.359100
      3 C19         17.2070    85.9080   103.3660 ca         1 IHU       0.058100
      4 C20         16.0710    85.6390   102.5690 ca         1 IHU      -0.131000
      5 C21         14.8320    86.2130   102.8950 ca         1 IHU      -0.133000
      6 C22         14.7180    87.0530   104.0100 ca         1 IHU       0.128100
      7 O55         13.5090    87.6030   104.3160 oh         1 IHU      -0.540100
      8 C23         15.8400    87.3260   104.8080 ca         1 IHU      -0.201000
      9 C18         17.0950    86.7560   104.4920 ca         1 IHU       0.001000
     10 N17         18.2730    86.9910   105.2570 ns         1 IHU      -0.137000
     11 C15         18.5300    87.7510   106.3870 c          1 IHU       0.663100
     12 O16         17.6960    88.4180   106.9770 o          1 IHU      -0.614100
     13 N14         19.8160    87.7340   106.8540 ns         1 IHU      -0.484500
     14 C12         20.9510    87.1060   106.4070 c          1 IHU       0.635700
     15 O13         20.9450    86.3880   105.4200 o          1 IHU      -0.556100
     16 C3          22.1790    87.3070   107.2670 ca         1 IHU      -0.169600
     17 C4          22.0390    87.5180   108.6630 ca         1 IHU      -0.051000
     18 C5          23.1690    87.6920   109.4790 ca         1 IHU      -0.153000
     19 C6          24.4500    87.6590   108.9180 ca         1 IHU       0.202000
     20 F10         25.5350    87.8270   109.7050 f          1 IHU      -0.168000
     21 C1          24.6110    87.4530   107.5440 ca         1 IHU      -0.153000
     22 C2          23.4900    87.2760   106.7170 ca         1 IHU       0.190000
     23 Cl11        23.8010    87.0850   104.9890 cl         1 IHU      -0.164000
     24 H511        18.0480    83.5870   102.0360 h1         1 IHU       0.042367
     25 H512        19.7190    84.1770   101.9200 h1         1 IHU       0.042367
     26 H513        18.4320    84.9980   101.0130 h1         1 IHU       0.042367
     27 H20         16.1300    84.9910   101.6980 ha         1 IHU       0.121000
     28 H21         13.9580    86.0050   102.2820 ha         1 IHU       0.131000
     29 H55         13.6120    88.1580   105.1190 ho         1 IHU       0.465000
     30 H23         15.7240    87.9790   105.6650 ha         1 IHU       0.151000
     31 H17         19.0880    86.5040   104.9020 hn         1 IHU       0.212000
     32 H14         19.9460    88.3130   107.6670 hn         1 IHU       0.339500
     33 H4          21.0590    87.5210   109.1370 ha         1 IHU       0.131000
     34 H5          23.0530    87.8460   110.5500 ha         1 IHU       0.145000
     35 H1          25.6090    87.4380   107.1160 ha         1 IHU       0.155000
@<TRIPOS>BOND
     1     1     2 1   
     2     1    24 1   
     3     1    25 1   
     4     1    26 1   
     5     2     3 1   
     6     3     4 ar  
     7     3     9 ar  
     8     4     5 ar  
     9     4    27 1   
    10     5     6 ar  
    11     5    28 1   
    12     6     7 1   
    13     6     8 ar  
    14     7    29 1   
    15     8     9 ar  
    16     8    30 1   
    17     9    10 1   
    18    10    11 1   
    19    10    31 1   
    20    11    12 2   
    21    11    13 1   
    22    13    14 1   
    23    13    32 1   
    24    14    15 2   
    25    14    16 1   
    26    16    17 ar  
    27    16    22 ar  
    28    17    18 ar  
    29    17    33 1   
    30    18    19 ar  
    31    18    34 1   
    32    19    20 1   
    33    19    21 ar  
    34    21    22 ar  
    35    21    35 1   
    36    22    23 1   
@<TRIPOS>SUBSTRUCTURE
     1 IHU         1 TEMP              0 ****  ****    0 ROOT
