@<TRIPOS>MOLECULE
IHV
   47    49     1     0     0
SMALL
abcg2


@<TRIPOS>ATOM
      1 C10         27.3270   -46.8100   -14.4260 c3         1 IHV      -0.140400
      2 C11         30.4730   -47.9580   -13.1070 c3         1 IHV      -0.106700
      3 C15         31.8790   -49.5370   -10.1270 c5         1 IHV       0.149800
      4 C17         28.4160   -49.3440   -11.3840 c3         1 IHV       0.210100
      5 C18         32.5210   -48.9050    -8.9190 ca         1 IHV      -0.071300
      6 C19         32.5000   -47.5250    -8.7340 ca         1 IHV      -0.097000
      7 C20         33.0510   -46.9570    -7.5930 ca         1 IHV      -0.113500
      8 C21         33.6280   -47.7620    -6.6190 ca         1 IHV      -0.109000
      9 C22         33.6530   -49.1380    -6.7960 ca         1 IHV      -0.113500
     10 C23         33.1060   -49.7030    -7.9410 ca         1 IHV      -0.097000
     11 C1          30.4480   -44.2260   -15.4800 ca         1 IHV       0.310300
     12 C2          29.2840   -44.3330   -16.2530 ca         1 IHV       0.313300
     13 N3          28.3140   -45.1610   -15.8930 nb         1 IHV      -0.651000
     14 C4          28.4530   -45.8910   -14.7910 ca         1 IHV       0.312300
     15 C5          29.6130   -45.7810   -14.0200 ca         1 IHV       0.302300
     16 N6          30.5860   -44.9520   -14.3810 nb         1 IHV      -0.642000
     17 C8          29.0960   -43.5230   -17.4960 c3         1 IHV      -0.142400
     18 C9          29.8380   -46.5960   -12.7800 c3         1 IHV      -0.121700
     19 C12         30.7850   -48.7230   -11.8620 c2         1 IHV       0.590200
     20 N13         29.8400   -49.4830   -11.2290 nh         1 IHV      -0.774600
     21 C14         30.3740   -49.8150    -9.9210 c5         1 IHV       0.169800
     22 N16         31.9470   -48.7040   -11.3230 n2         1 IHV      -0.625900
     23 H33         26.5080   -46.6940   -15.1320 hc         1 IHV       0.052033
     24 H32         27.6400   -47.8560   -14.4430 hc         1 IHV       0.052033
     25 H34         26.9470   -46.6070   -13.4240 hc         1 IHV       0.052033
     26 H35         29.8220   -48.5380   -13.7640 hc         1 IHV       0.071200
     27 H36         31.4090   -47.7950   -13.6420 hc         1 IHV       0.071200
     28 H1          32.3970   -50.4830   -10.3300 h1         1 IHV       0.074700
     29 H39         27.9260   -50.2700   -11.0860 h1         1 IHV       0.035700
     30 H38         28.0050   -48.5320   -10.7740 h1         1 IHV       0.035700
     31 H40         28.1570   -49.1590   -12.4250 h1         1 IHV       0.035700
     32 H41         32.0530   -46.8900    -9.4890 ha         1 IHV       0.114500
     33 H42         33.0320   -45.8820    -7.4660 ha         1 IHV       0.111000
     34 H43         34.0590   -47.3180    -5.7300 ha         1 IHV       0.111000
     35 H44         34.1040   -49.7750    -6.0450 ha         1 IHV       0.111000
     36 H45         33.1360   -50.7780    -8.0760 ha         1 IHV       0.114500
     37 H25         32.3640   -43.3500   -15.1350 hc         1 IHV       0.053700
     38 H26         31.9600   -43.5390   -16.8450 hc         1 IHV       0.053700
     39 H24         31.2070   -42.2620   -15.9110 hc         1 IHV       0.053700
     40 H28         28.1350   -43.7470   -17.9520 hc         1 IHV       0.053700
     41 H27         29.1370   -42.4530   -17.2830 hc         1 IHV       0.053700
     42 H29         29.8810   -43.7280   -18.2270 hc         1 IHV       0.053700
     43 H31         30.5090   -46.0460   -12.1190 hc         1 IHV       0.063200
     44 H30         28.8990   -46.7340   -12.2410 hc         1 IHV       0.063200
     45 H2          29.9380   -49.1630    -9.1510 h1         1 IHV       0.050200
     46 H37         30.1630   -50.8480    -9.6430 h1         1 IHV       0.050200
     47 C7          31.5550   -43.2960   -15.8610 c3         1 IHV      -0.142400
@<TRIPOS>BOND
     1     1    14 1   
     2     1    23 1   
     3     1    24 1   
     4     1    25 1   
     5     2    18 1   
     6     2    19 1   
     7     2    26 1   
     8     2    27 1   
     9     3     5 1   
    10     3    21 1   
    11     3    22 1   
    12     3    28 1   
    13     4    20 1   
    14     4    29 1   
    15     4    30 1   
    16     4    31 1   
    17     5     6 ar  
    18     5    10 ar  
    19     6     7 ar  
    20     6    32 1   
    21     7     8 ar  
    22     7    33 1   
    23     8     9 ar  
    24     8    34 1   
    25     9    10 ar  
    26     9    35 1   
    27    10    36 1   
    28    11    12 ar  
    29    11    16 ar  
    30    11    47 1   
    31    12    13 ar  
    32    12    17 1   
    33    13    14 ar  
    34    14    15 ar  
    35    15    16 ar  
    36    15    18 1   
    37    17    40 1   
    38    17    41 1   
    39    17    42 1   
    40    18    43 1   
    41    18    44 1   
    42    19    20 1   
    43    19    22 2   
    44    20    21 1   
    45    21    45 1   
    46    21    46 1   
    47    37    47 1   
    48    38    47 1   
    49    39    47 1   
@<TRIPOS>SUBSTRUCTURE
     1 IHV         1 TEMP              0 ****  ****    0 ROOT
