@<TRIPOS>MOLECULE
IHV
   47    49     1     0     0
SMALL
No Charge or Current Charge


@<TRIPOS>ATOM
      1 C10         27.2880   -46.5510   -14.1560 c3         1 IHV      -0.140400
      2 C11         30.6050   -47.8560   -13.0870 c3         1 IHV      -0.106700
      3 C15         31.9430   -49.5750   -10.0890 c5         1 IHV       0.149800
      4 C17         28.5090   -49.4810   -11.6080 c3         1 IHV       0.210100
      5 C18         32.4790   -48.9870    -8.7800 ca         1 IHV      -0.071300
      6 C19         32.1750   -47.6630    -8.3940 ca         1 IHV      -0.097000
      7 C20         32.6700   -47.1380    -7.1880 ca         1 IHV      -0.113500
      8 C21         33.4760   -47.9300    -6.3540 ca         1 IHV      -0.109000
      9 C22         33.7860   -49.2470    -6.7280 ca         1 IHV      -0.113500
     10 C23         33.2900   -49.7720    -7.9350 ca         1 IHV      -0.097000
     11 C1          30.4680   -44.2230   -15.7200 ca         1 IHV       0.310300
     12 C2          29.1830   -44.2760   -16.3470 ca         1 IHV       0.313300
     13 N3          28.1650   -45.0230   -15.8420 nb         1 IHV      -0.651000
     14 C4          28.4380   -45.7160   -14.7040 ca         1 IHV       0.312300
     15 C5          29.7250   -45.6610   -14.0730 ca         1 IHV       0.302300
     16 N6          30.7430   -44.9150   -14.5820 nb         1 IHV      -0.642000
     17 C8          28.8680   -43.5040   -17.6210 c3         1 IHV      -0.142400
     18 C9          30.0590   -46.4340   -12.8000 c3         1 IHV      -0.121700
     19 C12         30.9070   -48.6440   -11.8260 c2         1 IHV       0.590200
     20 N13         29.9230   -49.3790   -11.1990 nh         1 IHV      -0.774600
     21 C14         30.4130   -49.8110    -9.8830 c5         1 IHV       0.169800
     22 N16         32.0660   -48.6710   -11.2750 n2         1 IHV      -0.625900
     23 H33         26.4050   -46.5060   -14.8040 hc         1 IHV       0.052033
     24 H32         27.5740   -47.6050   -14.0670 hc         1 IHV       0.052033
     25 H34         26.9840   -46.1960   -13.1640 hc         1 IHV       0.052033
     26 H35         29.9010   -48.4060   -13.7210 hc         1 IHV       0.071200
     27 H36         31.5230   -47.7660   -13.6800 hc         1 IHV       0.071200
     28 H1          32.4450   -50.5270   -10.3140 h1         1 IHV       0.074700
     29 H39         27.9570   -50.1390   -10.9240 h1         1 IHV       0.035700
     30 H38         28.0310   -48.4930   -11.5950 h1         1 IHV       0.035700
     31 H40         28.4300   -49.8980   -12.6210 h1         1 IHV       0.035700
     32 H41         31.5510   -47.0400    -9.0310 ha         1 IHV       0.114500
     33 H42         32.4280   -46.1170    -6.9000 ha         1 IHV       0.111000
     34 H43         33.8590   -47.5230    -5.4200 ha         1 IHV       0.111000
     35 H44         34.4100   -49.8620    -6.0840 ha         1 IHV       0.111000
     36 H45         33.5370   -50.7940    -8.2130 ha         1 IHV       0.114500
     37 H25         32.5190   -43.4740   -15.6670 hc         1 IHV       0.053700
     38 H26         31.8710   -43.7140   -17.2950 hc         1 IHV       0.053700
     39 H24         31.3410   -42.3290   -16.3220 hc         1 IHV       0.053700
     40 H28         27.8350   -43.6660   -17.9540 hc         1 IHV       0.053700
     41 H27         29.0000   -42.4270   -17.4680 hc         1 IHV       0.053700
     42 H29         29.5290   -43.8130   -18.4390 hc         1 IHV       0.053700
     43 H31         30.8080   -45.8840   -12.2150 hc         1 IHV       0.063200
     44 H30         29.1790   -46.5030   -12.1510 hc         1 IHV       0.063200
     45 H2          29.9990   -49.1760    -9.0870 h1         1 IHV       0.050200
     46 H37         30.1730   -50.8590    -9.6580 h1         1 IHV       0.050200
     47 C7          31.6130   -43.3900   -16.2800 c3         1 IHV      -0.142400
@<TRIPOS>BOND
     1     1    14 1   
     2     1    23 1   
     3     1    24 1   
     4     1    25 1   
     5     2    18 1   
     6     2    19 1   
     7     2    26 1   
     8     2    27 1   
     9     3     5 1   
    10     3    21 1   
    11     3    22 1   
    12     3    28 1   
    13     4    20 1   
    14     4    29 1   
    15     4    30 1   
    16     4    31 1   
    17     5     6 ar  
    18     5    10 ar  
    19     6     7 ar  
    20     6    32 1   
    21     7     8 ar  
    22     7    33 1   
    23     8     9 ar  
    24     8    34 1   
    25     9    10 ar  
    26     9    35 1   
    27    10    36 1   
    28    11    12 ar  
    29    11    16 ar  
    30    11    47 1   
    31    12    13 ar  
    32    12    17 1   
    33    13    14 ar  
    34    14    15 ar  
    35    15    16 ar  
    36    15    18 1   
    37    17    40 1   
    38    17    41 1   
    39    17    42 1   
    40    18    43 1   
    41    18    44 1   
    42    19    20 1   
    43    19    22 2   
    44    20    21 1   
    45    21    45 1   
    46    21    46 1   
    47    37    47 1   
    48    38    47 1   
    49    39    47 1   
@<TRIPOS>SUBSTRUCTURE
     1 IHV         1 TEMP              0 ****  ****    0 ROOT
