@<TRIPOS>MOLECULE
IHX
   47    50     1     0     0
SMALL
No Charge or Current Charge


@<TRIPOS>ATOM
      1 C1          -0.3420     3.6020    -1.4360 ca         1 IHX      -0.084000
      2 C2           0.0200     2.2520    -1.2840 ca         1 IHX      -0.111000
      3 C3           0.2070     4.5730    -0.5840 ca         1 IHX      -0.140000
      4 C4           0.9300     1.8470    -0.2750 cp         1 IHX       0.015000
      5 C5           1.1170     4.1960     0.4140 ca         1 IHX       0.135100
      6 C6           1.4780     2.8480     0.5660 ca         1 IHX      -0.197000
      7 C7           1.3380     0.4120    -0.1150 cp         1 IHX      -0.032000
      8 C8           0.3870    -0.6480    -0.0090 ca         1 IHX       0.334000
      9 C11          2.7190     0.1080    -0.0650 ca         1 IHX      -0.044000
     10 C12          3.1800    -1.2130     0.0790 ca         1 IHX      -0.223300
     11 C18         -1.8100    -1.4100     0.0750 ca         1 IHX       0.607900
     12 C19         -1.3280    -2.7520     0.1990 ca         1 IHX       0.265900
     13 N22         -3.1850    -1.0410     0.0500 nh         1 IHX      -0.775300
     14 C24         -5.0420     0.7120    -0.1850 c6         1 IHX       0.148800
     15 C27         -4.2570    -2.0900     0.1230 c6         1 IHX       0.220300
     16 F17          5.4020    -0.4990     0.6370 f          1 IHX      -0.114000
     17 C14          4.6820    -1.5170     0.1130 c3         1 IHX       0.361300
     18 F15          4.9680    -2.6120     0.8540 f          1 IHX      -0.114000
     19 F16          5.1630    -1.7430    -1.1290 f          1 IHX      -0.114000
     20 O13          1.6490     5.1440     1.2360 oh         1 IHX      -0.535100
     21 C10          2.2380    -2.2550     0.1620 ca         1 IHX       0.015000
     22 C9           0.8550    -2.0030     0.1270 ca         1 IHX       0.146000
     23 N21         -0.0020    -3.0560     0.2270 nb         1 IHX      -0.597000
     24 N20         -0.9490    -0.3720    -0.0240 nb         1 IHX      -0.757000
     25 C25         -5.6470    -1.5260     0.5620 c6         1 IHX       0.148800
     26 N23         -6.0840    -0.3550    -0.2520 n3         1 IHX      -0.716600
     27 C28         -7.4270     0.1350     0.1270 c3         1 IHX       0.152100
     28 C26         -3.6340     0.2190    -0.6450 c6         1 IHX       0.220300
     29 H1          -1.0440     3.8930    -2.2150 ha         1 IHX       0.114000
     30 H2          -0.4030     1.5110    -1.9570 ha         1 IHX       0.124000
     31 H3          -0.0710     5.6180    -0.6990 ha         1 IHX       0.128000
     32 H6           2.1810     2.5610     1.3440 ha         1 IHX       0.114000
     33 H11          3.4360     0.9220    -0.1560 ha         1 IHX       0.132000
     34 H19         -2.0080    -3.5980     0.2730 h4         1 IHX       0.030100
     35 H24         -5.3320     1.5670    -0.8120 h1         1 IHX       0.044200
     36 H24A        -4.9560     1.0880     0.8460 h1         1 IHX       0.044200
     37 H27         -4.3710    -2.5730    -0.8580 h1         1 IHX       0.062200
     38 H27A        -3.9860    -2.8730     0.8450 h1         1 IHX       0.062200
     39 HO13         2.2560     4.7010     1.8670 ho         1 IHX       0.464000
     40 H10          2.5740    -3.2850     0.2580 ha         1 IHX       0.147000
     41 H25         -6.3880    -2.3360     0.4930 h1         1 IHX       0.044200
     42 H25A        -5.5850    -1.2420     1.6240 h1         1 IHX       0.044200
     43 H28         -7.7330     0.9680    -0.5200 h1         1 IHX       0.034033
     44 H28A        -8.1740    -0.6640     0.0260 h1         1 IHX       0.034033
     45 H28B        -7.4380     0.4860     1.1680 h1         1 IHX       0.034033
     46 H26         -2.9350     1.0500    -0.4700 h1         1 IHX       0.062200
     47 H26A        -3.6630     0.0480    -1.7310 h1         1 IHX       0.062200
@<TRIPOS>BOND
     1     1     2 ar  
     2     1     3 ar  
     3     1    29 1   
     4     2     4 ar  
     5     2    30 1   
     6     3     5 ar  
     7     3    31 1   
     8     4     6 ar  
     9     4     7 1   
    10     5     6 ar  
    11     5    20 1   
    12     6    32 1   
    13     7     8 ar  
    14     7     9 ar  
    15     8    22 ar  
    16     8    24 ar  
    17     9    10 ar  
    18     9    33 1   
    19    10    17 1   
    20    10    21 ar  
    21    11    12 ar  
    22    11    13 1   
    23    11    24 ar  
    24    12    23 ar  
    25    12    34 1   
    26    13    15 1   
    27    13    28 1   
    28    14    26 1   
    29    14    28 1   
    30    14    35 1   
    31    14    36 1   
    32    15    25 1   
    33    15    37 1   
    34    15    38 1   
    35    16    17 1   
    36    17    18 1   
    37    17    19 1   
    38    20    39 1   
    39    21    22 ar  
    40    21    40 1   
    41    22    23 ar  
    42    25    26 1   
    43    25    41 1   
    44    25    42 1   
    45    26    27 1   
    46    27    43 1   
    47    27    44 1   
    48    27    45 1   
    49    28    46 1   
    50    28    47 1   
@<TRIPOS>SUBSTRUCTURE
     1 IHX         1 TEMP              0 ****  ****    0 ROOT
