@<TRIPOS>MOLECULE
IHX
   47    50     1     0     0
SMALL
abcg2


@<TRIPOS>ATOM
      1 C1          -0.2850     3.5100    -1.6390 ca         1 IHX      -0.084000
      2 C2           0.0350     2.1750    -1.4410 ca         1 IHX      -0.111000
      3 C3           0.1880     4.4960    -0.7860 ca         1 IHX      -0.140000
      4 C4           0.8550     1.8140    -0.3730 cp         1 IHX       0.015000
      5 C5           1.0030     4.1390     0.2840 ca         1 IHX       0.135100
      6 C6           1.3350     2.8020     0.4840 ca         1 IHX      -0.197000
      7 C7           1.2640     0.4110    -0.1510 cp         1 IHX      -0.032000
      8 C8           0.3080    -0.6420    -0.0880 ca         1 IHX       0.334000
      9 C11          2.5930     0.1040     0.0270 ca         1 IHX      -0.044000
     10 C12          3.0290    -1.2150     0.2600 ca         1 IHX      -0.223300
     11 C18         -1.8680    -1.3590    -0.1510 ca         1 IHX       0.607900
     12 C19         -1.3930    -2.7070     0.0730 ca         1 IHX       0.265900
     13 N22         -3.1820    -1.0790    -0.2830 nh         1 IHX      -0.775300
     14 C24         -4.8430     0.6960    -0.0140 c6         1 IHX       0.148800
     15 C27         -4.2380    -2.0750    -0.2550 c6         1 IHX       0.220300
     16 F17          5.0080    -0.7260     1.4250 f          1 IHX      -0.114000
     17 C14          4.4930    -1.4560     0.4240 c3         1 IHX       0.361300
     18 F15          4.7810    -2.7340     0.6840 f          1 IHX      -0.114000
     19 F16          5.1780    -1.1170    -0.6800 f          1 IHX      -0.114000
     20 O13          1.4410     5.1200     1.1000 oh         1 IHX      -0.535100
     21 C10          2.1210    -2.2400     0.3190 ca         1 IHX       0.015000
     22 C9           0.7580    -1.9580     0.1500 ca         1 IHX       0.146000
     23 N21         -0.1400    -2.9770     0.2170 nb         1 IHX      -0.597000
     24 N20         -1.0000    -0.3760    -0.2330 nb         1 IHX      -0.757000
     25 C25         -5.4480    -1.5400     0.4920 c6         1 IHX       0.148800
     26 N23         -5.9010    -0.2900    -0.0760 n3         1 IHX      -0.716600
     27 C28         -7.1140     0.1810     0.5530 c3         1 IHX       0.152100
     28 C26         -3.6190     0.2190    -0.7710 c6         1 IHX       0.220300
     29 H1          -0.9130     3.7910    -2.4740 ha         1 IHX       0.114000
     30 H2          -0.3430     1.4220    -2.1180 ha         1 IHX       0.124000
     31 H3          -0.0720     5.5350    -0.9450 ha         1 IHX       0.128000
     32 H6           1.9590     2.5240     1.3280 ha         1 IHX       0.114000
     33 H11          3.3200     0.9050    -0.0300 ha         1 IHX       0.132000
     34 H19         -2.0750    -3.5470     0.1140 h4         1 IHX       0.030100
     35 H24         -5.1880     1.6260    -0.4700 h1         1 IHX       0.044200
     36 H24A        -4.5590     0.9290     1.0270 h1         1 IHX       0.044200
     37 H27         -4.5230    -2.3470    -1.2770 h1         1 IHX       0.062200
     38 H27A        -3.9120    -2.9800     0.2500 h1         1 IHX       0.062200
     39 HO13         1.9810     4.7510     1.8070 ho         1 IHX       0.464000
     40 H10          2.4120    -3.2680     0.4950 ha         1 IHX       0.147000
     41 H25         -6.2480    -2.2810     0.4200 h1         1 IHX       0.044200
     42 H25A        -5.1920    -1.4400     1.5610 h1         1 IHX       0.044200
     43 H28         -7.4550     1.0930     0.0620 h1         1 IHX       0.034033
     44 H28A        -7.9010    -0.5680     0.4540 h1         1 IHX       0.034033
     45 H28B        -6.9920     0.4020     1.6250 h1         1 IHX       0.034033
     46 H26         -2.8110     0.9360    -0.6650 h1         1 IHX       0.062200
     47 H26A        -3.8590     0.1370    -1.8380 h1         1 IHX       0.062200
@<TRIPOS>BOND
     1     1     2 ar  
     2     1     3 ar  
     3     1    29 1   
     4     2     4 ar  
     5     2    30 1   
     6     3     5 ar  
     7     3    31 1   
     8     4     6 ar  
     9     4     7 1   
    10     5     6 ar  
    11     5    20 1   
    12     6    32 1   
    13     7     8 ar  
    14     7     9 ar  
    15     8    22 ar  
    16     8    24 ar  
    17     9    10 ar  
    18     9    33 1   
    19    10    17 1   
    20    10    21 ar  
    21    11    12 ar  
    22    11    13 1   
    23    11    24 ar  
    24    12    23 ar  
    25    12    34 1   
    26    13    15 1   
    27    13    28 1   
    28    14    26 1   
    29    14    28 1   
    30    14    35 1   
    31    14    36 1   
    32    15    25 1   
    33    15    37 1   
    34    15    38 1   
    35    16    17 1   
    36    17    18 1   
    37    17    19 1   
    38    20    39 1   
    39    21    22 ar  
    40    21    40 1   
    41    22    23 ar  
    42    25    26 1   
    43    25    41 1   
    44    25    42 1   
    45    26    27 1   
    46    27    43 1   
    47    27    44 1   
    48    27    45 1   
    49    28    46 1   
    50    28    47 1   
@<TRIPOS>SUBSTRUCTURE
     1 IHX         1 TEMP              0 ****  ****    0 ROOT
