@<TRIPOS>MOLECULE
IHZ
   47    49     1     0     0
SMALL
No Charge or Current Charge


@<TRIPOS>ATOM
      1 FAE         -7.1490     1.0800    -1.2020 f          1 IHZ      -0.113667
      2 CBD         -6.8170     1.3060     0.0890 c3         1 IHZ       0.356300
      3 FAF         -6.6030     2.6360     0.2150 f          1 IHZ      -0.113667
      4 FAG         -7.9100     1.0200     0.8330 f          1 IHZ      -0.113667
      5 CBB         -5.5920     0.4790     0.5030 ca         1 IHZ      -0.166300
      6 CAP         -4.2870     0.9670     0.2690 ca         1 IHZ      -0.124000
      7 CAK         -5.7460    -0.7900     1.0990 ca         1 IHZ      -0.091000
      8 CAH         -4.6200    -1.5430     1.4640 ca         1 IHZ      -0.090000
      9 CAI         -3.3270    -1.0450     1.2360 ca         1 IHZ      -0.106000
     10 CAX         -3.1490     0.2200     0.6330 ca         1 IHZ      -0.019000
     11 NAS         -1.8760     0.7950     0.3600 ns         1 IHZ      -0.142000
     12 CAV         -0.5760     0.3640     0.6040 c          1 IHZ       0.624700
     13 OAD         -0.3120    -0.6970     1.1610 o          1 IHZ      -0.576100
     14 CAZ          0.5280     1.2990     0.1360 ca         1 IHZ      -0.128600
     15 CAQ          1.8800     0.9420     0.3480 ca         1 IHZ      -0.102000
     16 CAL          0.2570     2.5310    -0.5060 ca         1 IHZ      -0.112000
     17 CAJ          1.3060     3.3730    -0.9090 ca         1 IHZ      -0.088000
     18 CAW          2.6480     3.0080    -0.6920 ca         1 IHZ      -0.095300
     19 CAA          3.7590     3.9530    -1.1480 c3         1 IHZ      -0.051800
     20 CBC          2.9370     1.7730    -0.0700 ca         1 IHZ       0.304000
     21 NAT          4.2690     1.3990     0.1670 nu         1 IHZ      -0.990000
     22 CAY          4.9190     0.1500     0.3050 ca         1 IHZ       0.264000
     23 CAO          4.3820    -1.0170    -0.2700 ca         1 IHZ      -0.086000
     24 CAM          6.1600     0.0240     0.9890 ca         1 IHZ       0.290900
     25 NAR          6.8290    -1.1480     1.1370 nb         1 IHZ      -0.640000
     26 CAN          6.2820    -2.2570     0.5890 ca         1 IHZ       0.316900
     27 CBA          5.0670    -2.2470    -0.1260 ca         1 IHZ      -0.166600
     28 CAU          4.5070    -3.5050    -0.7320 c          1 IHZ       0.619700
     29 OAC          3.4610    -3.5170    -1.3590 o          1 IHZ      -0.598100
     30 NAB          5.1880    -4.6610    -0.5750 nt         1 IHZ      -0.600000
     31 HAP         -4.1530     1.9390    -0.2040 ha         1 IHZ       0.126000
     32 HAK         -6.7380    -1.2000     1.2790 ha         1 IHZ       0.131000
     33 HAH         -4.7490    -2.5200     1.9250 ha         1 IHZ       0.123000
     34 HAI         -2.4820    -1.6590     1.5310 ha         1 IHZ       0.154000
     35 HNAS        -1.9290     1.6920    -0.1020 hn         1 IHZ       0.157000
     36 HAQ          2.1140     0.0160     0.8630 ha         1 IHZ       0.146000
     37 HAL         -0.7620     2.8600    -0.6970 ha         1 IHZ       0.116000
     38 HAJ          1.0690     4.3180    -1.3930 ha         1 IHZ       0.119000
     39 HAA          4.3260     4.3380    -0.2920 hc         1 IHZ       0.047367
     40 HAAA         4.4610     3.4450    -1.8200 hc         1 IHZ       0.047367
     41 HAAB         3.3610     4.8190    -1.6920 hc         1 IHZ       0.047367
     42 HNAT         4.9000     2.2010     0.2360 hn         1 IHZ       0.499000
     43 HAO          3.4570    -0.9670    -0.8370 ha         1 IHZ       0.151000
     44 HAM          6.6290     0.8970     1.4410 h4         1 IHZ       0.018100
     45 HAN          6.8520    -3.1740     0.7300 h4         1 IHZ       0.021100
     46 HNAB         6.0560    -4.6830    -0.0620 hn         1 IHZ       0.316500
     47 HNAA         4.8140    -5.5060    -0.9810 hn         1 IHZ       0.316500
@<TRIPOS>BOND
     1     1     2 1   
     2     2     3 1   
     3     2     4 1   
     4     2     5 1   
     5     5     6 ar  
     6     5     7 ar  
     7     6    10 ar  
     8     6    31 1   
     9     7     8 ar  
    10     7    32 1   
    11     8     9 ar  
    12     8    33 1   
    13     9    10 ar  
    14     9    34 1   
    15    10    11 1   
    16    11    12 1   
    17    11    35 1   
    18    12    13 2   
    19    12    14 1   
    20    14    15 ar  
    21    14    16 ar  
    22    15    20 ar  
    23    15    36 1   
    24    16    17 ar  
    25    16    37 1   
    26    17    18 ar  
    27    17    38 1   
    28    18    19 1   
    29    18    20 ar  
    30    19    39 1   
    31    19    40 1   
    32    19    41 1   
    33    20    21 1   
    34    21    22 1   
    35    21    42 1   
    36    22    23 ar  
    37    22    24 ar  
    38    23    27 ar  
    39    23    43 1   
    40    24    25 ar  
    41    24    44 1   
    42    25    26 ar  
    43    26    27 ar  
    44    26    45 1   
    45    27    28 1   
    46    28    29 2   
    47    28    30 1   
    48    30    46 1   
    49    30    47 1   
@<TRIPOS>SUBSTRUCTURE
     1 IHZ         1 TEMP              0 ****  ****    0 ROOT
