@<TRIPOS>MOLECULE
IHZ
   47    49     1     0     0
SMALL
abcg2


@<TRIPOS>ATOM
      1 FAE         -6.7090    -0.5110    -1.5100 f          1 IHZ      -0.113667
      2 CBD         -6.3960     0.4400    -0.6160 c3         1 IHZ       0.356300
      3 FAF         -6.1920     1.5660    -1.3050 f          1 IHZ      -0.113667
      4 FAG         -7.4880     0.6300     0.1350 f          1 IHZ      -0.113667
      5 CBB         -5.2130     0.0440     0.2130 ca         1 IHZ      -0.166300
      6 CAP         -3.9750     0.6170    -0.0150 ca         1 IHZ      -0.124000
      7 CAK         -5.3730    -0.9330     1.1900 ca         1 IHZ      -0.091000
      8 CAH         -4.2710    -1.3140     1.9340 ca         1 IHZ      -0.090000
      9 CAI         -3.0200    -0.7490     1.7220 ca         1 IHZ      -0.106000
     10 CAX         -2.8630     0.2260     0.7370 ca         1 IHZ      -0.019000
     11 NAS         -1.6600     0.8640     0.4350 ns         1 IHZ      -0.142000
     12 CAV         -0.4320     0.6850     0.9890 c          1 IHZ       0.624700
     13 OAD         -0.1910    -0.1480     1.8450 o          1 IHZ      -0.576100
     14 CAZ          0.6360     1.5830     0.4570 ca         1 IHZ      -0.128600
     15 CAQ          1.9490     1.1360     0.5500 ca         1 IHZ      -0.102000
     16 CAL          0.3800     2.8460    -0.0660 ca         1 IHZ      -0.112000
     17 CAJ          1.4370     3.6330    -0.4960 ca         1 IHZ      -0.088000
     18 CAW          2.7520     3.1880    -0.4500 ca         1 IHZ      -0.095300
     19 CAA          3.8740     4.0490    -0.9400 c3         1 IHZ      -0.051800
     20 CBC          3.0040     1.9090     0.0770 ca         1 IHZ       0.304000
     21 NAT          4.3210     1.4660     0.1470 nu         1 IHZ      -0.990000
     22 CAY          4.7700     0.1650     0.1350 ca         1 IHZ       0.264000
     23 CAO          4.0700    -0.8930    -0.4380 ca         1 IHZ      -0.086000
     24 CAM          6.0300    -0.1270     0.6750 ca         1 IHZ       0.290900
     25 NAR          6.5660    -1.3330     0.6760 nb         1 IHZ      -0.640000
     26 CAN          5.8730    -2.3430     0.1650 ca         1 IHZ       0.316900
     27 CBA          4.6140    -2.1690    -0.4000 ca         1 IHZ      -0.166600
     28 CAU          3.8330    -3.2850    -1.0210 c          1 IHZ       0.619700
     29 OAC          2.9950    -3.0580    -1.8810 o          1 IHZ      -0.598100
     30 NAB          4.1140    -4.5180    -0.5770 nt         1 IHZ      -0.600000
     31 HAP         -3.8520     1.3780    -0.7750 ha         1 IHZ       0.126000
     32 HAK         -6.3350    -1.3920     1.3760 ha         1 IHZ       0.131000
     33 HAH         -4.3780    -2.0690     2.7000 ha         1 IHZ       0.123000
     34 HAI         -2.1870    -1.0730     2.3230 ha         1 IHZ       0.154000
     35 HNAS        -1.7140     1.5120    -0.3360 hn         1 IHZ       0.157000
     36 HAQ          2.1470     0.1750     1.0070 ha         1 IHZ       0.146000
     37 HAL         -0.6240     3.2480    -0.1180 ha         1 IHZ       0.116000
     38 HAJ          1.2320     4.6200    -0.8890 ha         1 IHZ       0.119000
     39 HAA          4.5430     4.3460    -0.1270 hc         1 IHZ       0.047367
     40 HAAA         4.4840     3.5300    -1.6820 hc         1 IHZ       0.047367
     41 HAAB         3.4960     4.9630    -1.3950 hc         1 IHZ       0.047367
     42 HNAT         5.0220     2.1670     0.3310 hn         1 IHZ       0.499000
     43 HAO          3.1110    -0.7350    -0.9120 ha         1 IHZ       0.151000
     44 HAM          6.6220     0.6720     1.1140 h4         1 IHZ       0.018100
     45 HAN          6.3560    -3.3130     0.1910 h4         1 IHZ       0.021100
     46 HNAB         4.6930    -4.6830     0.2280 hn         1 IHZ       0.316500
     47 HNAA         3.5930    -5.3040    -0.9310 hn         1 IHZ       0.316500
@<TRIPOS>BOND
     1     1     2 1   
     2     2     3 1   
     3     2     4 1   
     4     2     5 1   
     5     5     6 ar  
     6     5     7 ar  
     7     6    10 ar  
     8     6    31 1   
     9     7     8 ar  
    10     7    32 1   
    11     8     9 ar  
    12     8    33 1   
    13     9    10 ar  
    14     9    34 1   
    15    10    11 1   
    16    11    12 1   
    17    11    35 1   
    18    12    13 2   
    19    12    14 1   
    20    14    15 ar  
    21    14    16 ar  
    22    15    20 ar  
    23    15    36 1   
    24    16    17 ar  
    25    16    37 1   
    26    17    18 ar  
    27    17    38 1   
    28    18    19 1   
    29    18    20 ar  
    30    19    39 1   
    31    19    40 1   
    32    19    41 1   
    33    20    21 1   
    34    21    22 1   
    35    21    42 1   
    36    22    23 ar  
    37    22    24 ar  
    38    23    27 ar  
    39    23    43 1   
    40    24    25 ar  
    41    24    44 1   
    42    25    26 ar  
    43    26    27 ar  
    44    26    45 1   
    45    27    28 1   
    46    28    29 2   
    47    28    30 1   
    48    30    46 1   
    49    30    47 1   
@<TRIPOS>SUBSTRUCTURE
     1 IHZ         1 TEMP              0 ****  ****    0 ROOT
