@<TRIPOS>MOLECULE
II0
   94    95     1     0     0
SMALL
No Charge or Current Charge


@<TRIPOS>ATOM
      1 C03        218.0960   154.1580   145.6810 c6         1 II0       0.008700
      2 C04        197.9150   163.9300   141.6980 c6         1 II0       0.008700
      3 C05        219.6380   154.0100   145.5260 c6         1 II0      -0.087900
      4 C06        196.3850   164.2180   141.8420 c6         1 II0      -0.087900
      5 C07        220.1740   152.7970   146.3090 c6         1 II0       0.175800
      6 C08        195.7930   165.0960   140.7170 c6         1 II0       0.175800
      7 C09        217.3780   152.8040   145.4020 ce         1 II0       0.025600
      8 C10        198.6980   165.2110   141.2850 ce         1 II0       0.025600
      9 C11        219.5360   151.5020   145.7600 c6         1 II0      -0.061200
     10 C12        196.5590   166.4320   140.6340 c6         1 II0      -0.061200
     11 C13        218.0320   151.6060   145.4850 c2         1 II0      -0.073900
     12 C14        198.0810   166.3180   140.7700 c2         1 II0      -0.073900
     13 C15        217.6120   155.2780   144.7010 c3         1 II0      -0.083100
     14 C16        217.7280   154.6220   147.1280 c3         1 II0      -0.083100
     15 C18        198.1940   162.8110   140.6400 c3         1 II0      -0.083100
     16 C19        217.4030   150.2300   145.2720 c3         1 II0      -0.057400
     17 C20        198.7820   167.5950   140.3060 c3         1 II0      -0.057400
     18 C21        215.9650   152.8470   145.1410 cg         1 II0      -0.129300
     19 C22        200.1330   165.1650   141.3880 cg         1 II0      -0.129300
     20 C23        214.7630   152.9400   144.9510 ch         1 II0      -0.175300
     21 C24        201.3450   165.0600   141.4800 ch         1 II0      -0.175300
     22 C25        213.3610   153.1220   144.7380 cf         1 II0       0.050100
     23 C26        202.7550   164.8700   141.6180 cf         1 II0       0.050100
     24 C27        212.5920   151.8180   144.5800 c3         1 II0      -0.050900
     25 C28        203.5810   166.0600   141.1490 c3         1 II0      -0.050900
     26 C29        212.8290   154.3800   144.6920 ce         1 II0      -0.170000
     27 C30        203.2460   163.7040   142.1330 ce         1 II0      -0.170000
     28 C31        211.4200   154.7560   144.4830 ce         1 II0      -0.173000
     29 C32        204.6560   163.3350   142.3460 ce         1 II0      -0.173000
     30 C33        210.9790   156.0470   144.4520 cf         1 II0      -0.171500
     31 C34        205.0540   162.1390   142.8700 cf         1 II0      -0.171500
     32 C35        209.6040   156.5110   144.2410 cf         1 II0      -0.063200
     33 C36        206.4280   161.6820   143.1070 cf         1 II0      -0.063200
     34 C37        208.4810   155.4890   144.3990 c3         1 II0      -0.055900
     35 C38        207.5220   162.7500   143.1740 c3         1 II0      -0.055900
     36 C39        209.3650   157.8310   143.9760 ce         1 II0      -0.175500
     37 C40        206.6640   160.3490   143.3140 ce         1 II0      -0.175500
     38 C41        208.0620   158.4720   143.7390 ce         1 II0      -0.171000
     39 C42        207.8990   159.8100   143.5420 cf         1 II0      -0.171000
     40 O01        221.5990   152.7330   146.1940 oh         1 II0      -0.656000
     41 O02        195.7920   164.4280   139.4520 oh         1 II0      -0.656000
     42 H1         219.8950   153.8940   144.4640 hc         1 II0       0.051200
     43 H2         220.1410   154.9260   145.8660 hc         1 II0       0.051200
     44 H3         195.8230   163.2770   141.9210 hc         1 II0       0.051200
     45 H4         196.2110   164.7420   142.7920 hc         1 II0       0.051200
     46 H5         219.8980   152.9040   147.3680 h1         1 II0       0.032200
     47 H6         194.7510   165.3290   140.9860 h1         1 II0       0.032200
     48 H8         219.7300   150.6840   146.4670 hc         1 II0       0.056700
     49 H9         220.0360   151.2190   144.8230 hc         1 II0       0.056700
     50 H10        196.1950   167.0920   141.4330 hc         1 II0       0.056700
     51 H11        196.2990   166.9380   139.6930 hc         1 II0       0.056700
     52 H13        217.7480   154.9750   143.6560 hc         1 II0       0.037950
     53 H14        216.5520   155.5250   144.8390 hc         1 II0       0.037950
     54 H15        218.1760   156.2070   144.8490 hc         1 II0       0.037950
     55 H16        217.9590   153.8550   147.8750 hc         1 II0       0.037950
     56 H17        218.2700   155.5340   147.4080 hc         1 II0       0.037950
     57 H18        216.6560   154.8390   147.2180 hc         1 II0       0.037950
     58 H19        198.3620   164.1470   143.8540 hc         1 II0       0.037950
     59 H20        197.8300   162.5220   143.4040 hc         1 II0       0.037950
     60 H21        199.4700   163.0440   143.0280 hc         1 II0       0.037950
     61 H22        198.0150   163.1590   139.6170 hc         1 II0       0.037950
     62 H23        199.2380   162.4770   140.6750 hc         1 II0       0.037950
     63 H24        197.5660   161.9290   140.8110 hc         1 II0       0.037950
     64 H25        217.9650   149.6540   144.5270 hc         1 II0       0.045200
     65 H26        217.4060   149.6530   146.2050 hc         1 II0       0.045200
     66 H27        216.3660   150.2710   144.9220 hc         1 II0       0.045200
     67 H28        198.3030   168.4820   140.7360 hc         1 II0       0.045200
     68 H29        199.8400   167.6450   140.5860 hc         1 II0       0.045200
     69 H30        198.7310   167.6890   139.2150 hc         1 II0       0.045200
     70 H31        212.7090   151.1840   145.4680 hc         1 II0       0.045367
     71 H32        211.5180   151.9610   144.4320 hc         1 II0       0.045367
     72 H33        212.9610   151.2470   143.7190 hc         1 II0       0.045367
     73 H34        204.6580   165.9180   141.2730 hc         1 II0       0.045367
     74 H35        203.4050   166.2650   140.0860 hc         1 II0       0.045367
     75 H36        203.3140   166.9660   141.7060 hc         1 II0       0.045367
     76 H37        213.5200   155.2150   144.8260 ha         1 II0       0.176500
     77 H38        202.5170   162.9460   142.4260 ha         1 II0       0.176500
     78 H39        210.7030   153.9520   144.3300 ha         1 II0       0.174000
     79 H40        205.4140   164.0570   142.0490 ha         1 II0       0.174000
     80 H41        211.7300   156.8300   144.5790 ha         1 II0       0.171500
     81 H42        204.2680   161.4250   143.1230 ha         1 II0       0.171500
     82 H43        208.7370   154.7050   145.1200 hc         1 II0       0.042700
     83 H44        207.5580   155.9410   144.7770 hc         1 II0       0.042700
     84 H45        208.2500   155.0050   143.4430 hc         1 II0       0.042700
     85 H46        208.2610   162.5340   143.9540 hc         1 II0       0.042700
     86 H47        208.0530   162.8330   142.2190 hc         1 II0       0.042700
     87 H48        207.1250   163.7400   143.4250 hc         1 II0       0.042700
     88 H49        210.2280   158.4960   143.9150 ha         1 II0       0.169500
     89 H50        205.8080   159.6730   143.2820 ha         1 II0       0.169500
     90 H51        207.1800   157.8310   143.7090 ha         1 II0       0.172000
     91 H52        208.7880   160.4420   143.5650 ha         1 II0       0.172000
     92 H53        221.8980   152.0050   146.7820 ho         1 II0       0.441000
     93 H54        195.2360   163.6260   139.5570 ho         1 II0       0.441000
     94 C17        198.4270   163.3800   143.0720 c3         1 II0      -0.083100
@<TRIPOS>BOND
     1     1     3 1   
     2     1     7 1   
     3     1    13 1   
     4     1    14 1   
     5     2     4 1   
     6     2     8 1   
     7     2    15 1   
     8     2    94 1   
     9     3     5 1   
    10     3    42 1   
    11     3    43 1   
    12     4     6 1   
    13     4    44 1   
    14     4    45 1   
    15     5     9 1   
    16     5    40 1   
    17     5    46 1   
    18     6    10 1   
    19     6    41 1   
    20     6    47 1   
    21     7    11 2   
    22     7    18 1   
    23     8    12 2   
    24     8    19 1   
    25     9    11 1   
    26     9    48 1   
    27     9    49 1   
    28    10    12 1   
    29    10    50 1   
    30    10    51 1   
    31    11    16 1   
    32    12    17 1   
    33    13    52 1   
    34    13    53 1   
    35    13    54 1   
    36    14    55 1   
    37    14    56 1   
    38    14    57 1   
    39    15    61 1   
    40    15    62 1   
    41    15    63 1   
    42    16    64 1   
    43    16    65 1   
    44    16    66 1   
    45    17    67 1   
    46    17    68 1   
    47    17    69 1   
    48    18    20 3   
    49    19    21 3   
    50    20    22 1   
    51    21    23 1   
    52    22    24 1   
    53    22    26 2   
    54    23    25 1   
    55    23    27 2   
    56    24    70 1   
    57    24    71 1   
    58    24    72 1   
    59    25    73 1   
    60    25    74 1   
    61    25    75 1   
    62    26    28 1   
    63    26    76 1   
    64    27    29 1   
    65    27    77 1   
    66    28    30 2   
    67    28    78 1   
    68    29    31 2   
    69    29    79 1   
    70    30    32 1   
    71    30    80 1   
    72    31    33 1   
    73    31    81 1   
    74    32    34 1   
    75    32    36 2   
    76    33    35 1   
    77    33    37 2   
    78    34    82 1   
    79    34    83 1   
    80    34    84 1   
    81    35    85 1   
    82    35    86 1   
    83    35    87 1   
    84    36    38 1   
    85    36    88 1   
    86    37    39 1   
    87    37    89 1   
    88    38    39 2   
    89    38    90 1   
    90    39    91 1   
    91    40    92 1   
    92    41    93 1   
    93    58    94 1   
    94    59    94 1   
    95    60    94 1   
@<TRIPOS>SUBSTRUCTURE
     1 II0         1 TEMP              0 ****  ****    0 ROOT
