@<TRIPOS>MOLECULE
II0
   94    95     1     0     0
SMALL
abcg2


@<TRIPOS>ATOM
      1 C03        218.2670   154.0340   145.2920 c6         1 II0       0.008700
      2 C04        197.8820   163.7570   141.3870 c6         1 II0       0.008700
      3 C05        219.7370   153.6170   145.1590 c6         1 II0      -0.087900
      4 C06        196.3650   163.9660   141.2540 c6         1 II0      -0.087900
      5 C07        220.1210   152.5260   146.1350 c6         1 II0       0.175800
      6 C08        195.9410   165.0570   140.2850 c6         1 II0       0.175800
      7 C09        217.3760   152.8020   145.4260 ce         1 II0       0.025600
      8 C10        198.6200   165.0910   141.3210 ce         1 II0       0.025600
      9 C11        219.3080   151.2800   145.8220 c6         1 II0      -0.061200
     10 C12        196.5690   166.3690   140.7130 c6         1 II0      -0.061200
     11 C13        217.8430   151.5580   145.6610 c2         1 II0      -0.073900
     12 C14        198.0340   166.2670   141.0220 c2         1 II0      -0.073900
     13 C15        217.8860   154.8280   144.0390 c3         1 II0      -0.083100
     14 C16        218.0690   154.9310   146.5210 c3         1 II0      -0.083100
     15 C18        198.4150   162.8230   140.2920 c3         1 II0      -0.083100
     16 C19        216.9640   150.3550   145.7790 c3         1 II0      -0.057400
     17 C20        198.7680   167.5690   140.9830 c3         1 II0      -0.057400
     18 C21        215.9760   153.0300   145.3170 cg         1 II0      -0.129300
     19 C22        200.0180   165.0300   141.5780 cg         1 II0      -0.129300
     20 C23        214.7910   153.2640   145.2190 ch         1 II0      -0.175300
     21 C24        201.2070   164.9130   141.7890 ch         1 II0      -0.175300
     22 C25        213.3870   153.4410   145.1170 cf         1 II0       0.050100
     23 C26        202.6030   164.8330   142.0240 cf         1 II0       0.050100
     24 C27        212.5750   152.1900   145.3010 c3         1 II0      -0.050900
     25 C28        203.3500   166.1340   141.9310 c3         1 II0      -0.050900
     26 C29        212.8820   154.6750   144.8670 ce         1 II0      -0.170000
     27 C30        203.1590   163.6280   142.3030 ce         1 II0      -0.170000
     28 C31        211.4940   155.0080   144.7160 ce         1 II0      -0.173000
     29 C32        204.5490   163.3640   142.5500 ce         1 II0      -0.173000
     30 C33        211.0650   156.2670   144.4670 cf         1 II0      -0.171500
     31 C34        205.0120   162.1210   142.8150 cf         1 II0      -0.171500
     32 C35        209.6870   156.6600   144.2860 cf         1 II0      -0.063200
     33 C36        206.3920   161.7680   143.0530 cf         1 II0      -0.063200
     34 C37        208.6310   155.6000   144.3770 c3         1 II0      -0.055900
     35 C38        207.4230   162.8530   142.9990 c3         1 II0      -0.055900
     36 C39        209.4210   157.9700   144.0340 ce         1 II0      -0.175500
     37 C40        206.6800   160.4640   143.3100 ce         1 II0      -0.175500
     38 C41        208.1380   158.5640   143.8070 ce         1 II0      -0.171000
     39 C42        207.9670   159.8850   143.5550 cf         1 II0      -0.171000
     40 O01        221.5090   152.2950   146.0250 oh         1 II0      -0.656000
     41 O02        196.3270   164.8120   138.9460 oh         1 II0      -0.656000
     42 H1         219.9210   153.2530   144.1420 hc         1 II0       0.051200
     43 H2         220.3670   154.4990   145.3000 hc         1 II0       0.051200
     44 H3         195.8950   163.0130   140.9910 hc         1 II0       0.051200
     45 H4         195.9530   164.2400   142.2310 hc         1 II0       0.051200
     46 H5         219.8720   152.8500   147.1560 h1         1 II0       0.032200
     47 H6         194.8490   165.1610   140.3460 h1         1 II0       0.032200
     48 H8         219.4450   150.5270   146.6060 hc         1 II0       0.056700
     49 H9         219.6860   150.8220   144.8980 hc         1 II0       0.056700
     50 H10        196.0460   166.7420   141.6000 hc         1 II0       0.056700
     51 H11        196.4100   167.1310   139.9430 hc         1 II0       0.056700
     52 H13        217.9540   154.2110   143.1420 hc         1 II0       0.037950
     53 H14        216.8710   155.2240   144.1030 hc         1 II0       0.037950
     54 H15        218.5650   155.6740   143.9170 hc         1 II0       0.037950
     55 H16        218.3540   154.4280   147.4450 hc         1 II0       0.037950
     56 H17        218.6710   155.8380   146.4320 hc         1 II0       0.037950
     57 H18        217.0260   155.2350   146.6190 hc         1 II0       0.037950
     58 H19        197.8340   163.7360   143.5700 hc         1 II0       0.037950
     59 H20        197.5700   162.1620   142.8170 hc         1 II0       0.037950
     60 H21        199.1940   162.8420   142.8800 hc         1 II0       0.037950
     61 H22        198.2850   163.2440   139.2970 hc         1 II0       0.037950
     62 H23        199.4780   162.6200   140.4360 hc         1 II0       0.037950
     63 H24        197.8910   161.8650   140.3260 hc         1 II0       0.037950
     64 H25        217.3170   149.5620   145.1140 hc         1 II0       0.045200
     65 H26        217.0110   149.9490   146.7930 hc         1 II0       0.045200
     66 H27        215.9220   150.5590   145.5430 hc         1 II0       0.045200
     67 H28        198.2530   168.3110   141.5970 hc         1 II0       0.045200
     68 H29        199.7960   167.4930   141.3320 hc         1 II0       0.045200
     69 H30        198.7810   167.9680   139.9660 hc         1 II0       0.045200
     70 H31        212.7680   151.7540   146.2830 hc         1 II0       0.045367
     71 H32        211.5050   152.3590   145.2140 hc         1 II0       0.045367
     72 H33        212.8570   151.4390   144.5600 hc         1 II0       0.045367
     73 H34        204.4120   166.0280   142.1350 hc         1 II0       0.045367
     74 H35        203.2400   166.5670   140.9360 hc         1 II0       0.045367
     75 H36        202.9440   166.8580   142.6400 hc         1 II0       0.045367
     76 H37        213.5880   155.4940   144.7630 ha         1 II0       0.176500
     77 H38        202.4950   162.7690   142.3400 ha         1 II0       0.176500
     78 H39        210.7660   154.2100   144.7980 ha         1 II0       0.174000
     79 H40        205.2450   164.1930   142.5140 ha         1 II0       0.174000
     80 H41        211.8070   157.0580   144.3870 ha         1 II0       0.171500
     81 H42        204.2950   161.3040   142.8510 ha         1 II0       0.171500
     82 H43        208.6530   155.1110   145.3530 hc         1 II0       0.042700
     83 H44        207.6270   155.9860   144.2290 hc         1 II0       0.042700
     84 H45        208.7980   154.8210   143.6310 hc         1 II0       0.042700
     85 H46        208.4320   162.4890   143.1750 hc         1 II0       0.042700
     86 H47        207.4180   163.3490   142.0260 hc         1 II0       0.042700
     87 H48        207.2170   163.6230   143.7460 hc         1 II0       0.042700
     88 H49        210.2690   158.6500   143.9920 ha         1 II0       0.169500
     89 H50        205.8440   159.7680   143.3290 ha         1 II0       0.169500
     90 H51        207.2560   157.9320   143.8280 ha         1 II0       0.172000
     91 H52        208.8450   160.5230   143.5350 ha         1 II0       0.172000
     92 H53        221.7550   151.6230   146.6690 ho         1 II0       0.441000
     93 H54        195.9930   163.9460   138.6910 ho         1 II0       0.441000
     94 C17        198.1400   163.0910   142.7450 c3         1 II0      -0.083100
@<TRIPOS>BOND
     1     1     3 1   
     2     1     7 1   
     3     1    13 1   
     4     1    14 1   
     5     2     4 1   
     6     2     8 1   
     7     2    15 1   
     8     2    94 1   
     9     3     5 1   
    10     3    42 1   
    11     3    43 1   
    12     4     6 1   
    13     4    44 1   
    14     4    45 1   
    15     5     9 1   
    16     5    40 1   
    17     5    46 1   
    18     6    10 1   
    19     6    41 1   
    20     6    47 1   
    21     7    11 2   
    22     7    18 1   
    23     8    12 2   
    24     8    19 1   
    25     9    11 1   
    26     9    48 1   
    27     9    49 1   
    28    10    12 1   
    29    10    50 1   
    30    10    51 1   
    31    11    16 1   
    32    12    17 1   
    33    13    52 1   
    34    13    53 1   
    35    13    54 1   
    36    14    55 1   
    37    14    56 1   
    38    14    57 1   
    39    15    61 1   
    40    15    62 1   
    41    15    63 1   
    42    16    64 1   
    43    16    65 1   
    44    16    66 1   
    45    17    67 1   
    46    17    68 1   
    47    17    69 1   
    48    18    20 3   
    49    19    21 3   
    50    20    22 1   
    51    21    23 1   
    52    22    24 1   
    53    22    26 2   
    54    23    25 1   
    55    23    27 2   
    56    24    70 1   
    57    24    71 1   
    58    24    72 1   
    59    25    73 1   
    60    25    74 1   
    61    25    75 1   
    62    26    28 1   
    63    26    76 1   
    64    27    29 1   
    65    27    77 1   
    66    28    30 2   
    67    28    78 1   
    68    29    31 2   
    69    29    79 1   
    70    30    32 1   
    71    30    80 1   
    72    31    33 1   
    73    31    81 1   
    74    32    34 1   
    75    32    36 2   
    76    33    35 1   
    77    33    37 2   
    78    34    82 1   
    79    34    83 1   
    80    34    84 1   
    81    35    85 1   
    82    35    86 1   
    83    35    87 1   
    84    36    38 1   
    85    36    88 1   
    86    37    39 1   
    87    37    89 1   
    88    38    39 2   
    89    38    90 1   
    90    39    91 1   
    91    40    92 1   
    92    41    93 1   
    93    58    94 1   
    94    59    94 1   
    95    60    94 1   
@<TRIPOS>SUBSTRUCTURE
     1 II0         1 TEMP              0 ****  ****    0 ROOT
