@<TRIPOS>MOLECULE
II1
   34    33     1     0     0
SMALL
abcg2


@<TRIPOS>ATOM
      1 N1         -24.7800    -4.9170   -12.9400 n7         1 II1      -0.835400
      2 C2         -23.7580    -5.8150   -12.4400 c3         1 II1       0.057500
      3 C3         -22.4830    -5.6390   -13.2640 c3         1 II1       0.178800
      4 C4         -21.7210    -5.7500   -15.5850 c3         1 II1       0.078500
      5 C5         -21.5230    -6.7720   -16.7060 c3         1 II1      -0.152400
      6 C6         -22.7380    -7.0710   -17.6030 c          1 II1       0.715000
      7 N          -26.7290    -4.7780   -15.0390 n8         1 II1      -0.955200
      8 C          -27.1070    -4.6190   -13.6410 c3         1 II1       0.028500
      9 O          -22.5070    -7.7730   -18.6110 o          1 II1      -0.773500
     10 C1         -26.1310    -5.3950   -12.7620 c3         1 II1       0.223800
     11 C7         -22.0800    -4.3530   -16.1620 c          1 II1       0.702000
     12 C8         -23.4760    -5.6640   -10.9220 c          1 II1       0.713000
     13 C9         -27.1920    -3.1250   -13.2350 c          1 II1       0.739000
     14 N2         -22.6170    -6.2670   -14.5690 n7         1 II1      -0.888400
     15 O1         -23.8520    -6.6160   -17.2650 o          1 II1      -0.773500
     16 O4         -24.0290    -4.7360   -10.3040 o          1 II1      -0.774000
     17 O5         -22.7000    -6.5190   -10.4410 o          1 II1      -0.774000
     18 O6         -27.1100    -2.2760   -14.1450 o          1 II1      -0.757000
     19 O7         -27.3830    -2.9010   -12.0240 o          1 II1      -0.757000
     20 H1         -24.6430    -4.7580   -13.9320 hn         1 II1       0.463000
     21 H3         -24.0610    -6.8710   -12.5790 h1         1 II1      -0.014300
     22 H4         -21.6460    -6.1030   -12.7360 h1         1 II1       0.016200
     23 H5         -22.2600    -4.5630   -13.3230 h1         1 II1       0.016200
     24 H7         -20.7380    -5.6350   -15.1070 h1         1 II1      -0.025300
     25 H8         -21.2030    -7.7200   -16.2560 hc         1 II1      -0.010800
     26 H9         -20.6930    -6.4590   -17.3430 hc         1 II1      -0.010800
     27 H13        -28.1080    -5.0340   -13.4360 h1         1 II1      -0.061300
     28 H14        -26.4330    -5.2980   -11.7180 h1         1 II1      -0.016800
     29 H15        -26.2230    -6.4700   -13.0090 h1         1 II1      -0.016800
     30 H16        -23.5580    -6.1480   -14.9200 hn         1 II1       0.449000
     31 O3         -23.1050    -3.7730   -15.7500 o          1 II1      -0.758500
     32 H10        -27.1040    -5.6440   -15.4050 hn         1 II1       0.367500
     33 O2         -21.2730    -3.9040   -17.0070 o          1 II1      -0.758500
     34 H11        -27.1290    -4.0210   -15.5760 hn         1 II1       0.367500
@<TRIPOS>BOND
     1     1     2 1   
     2     1    10 1   
     3     1    20 1   
     4     2     3 1   
     5     2    12 1   
     6     2    21 1   
     7     3    14 1   
     8     3    22 1   
     9     3    23 1   
    10     4     5 1   
    11     4    11 1   
    12     4    14 1   
    13     4    24 1   
    14     5     6 1   
    15     5    25 1   
    16     5    26 1   
    17     6     9 1   
    18     6    15 1   
    19     7     8 1   
    20     7    32 1   
    21     7    34 1   
    22     8    10 1   
    23     8    13 1   
    24     8    27 1   
    25    10    28 1   
    26    10    29 1   
    27    11    31 1   
    28    11    33 1   
    29    12    16 1   
    30    12    17 1   
    31    13    18 1   
    32    13    19 1   
    33    14    30 1   
@<TRIPOS>SUBSTRUCTURE
     1 II1         1 TEMP              0 ****  ****    0 ROOT
