@<TRIPOS>MOLECULE
II1
   34    33     1     0     0
SMALL
No Charge or Current Charge


@<TRIPOS>ATOM
      1 N1         -24.9480    -4.9400   -13.1540 n7         1 II1      -0.835400
      2 C2         -23.7430    -5.6160   -12.5430 c3         1 II1       0.057500
      3 C3         -22.4880    -5.5050   -13.4640 c3         1 II1       0.178800
      4 C4         -21.4990    -6.1620   -15.6920 c3         1 II1       0.078500
      5 C5         -21.7860    -7.0470   -16.9390 c3         1 II1      -0.152400
      6 C6         -22.5470    -6.2720   -18.0390 c          1 II1       0.715000
      7 N          -27.3750    -5.5970   -14.5580 n8         1 II1      -0.955200
      8 C          -27.4260    -4.7700   -13.2850 c3         1 II1       0.028500
      9 O          -21.8950    -5.7190   -18.9140 o          1 II1      -0.773500
     10 C1         -26.1930    -5.0470   -12.3770 c3         1 II1       0.223800
     11 C7         -20.7960    -4.7830   -16.0840 c          1 II1       0.702000
     12 C8         -23.3690    -5.1350   -11.0780 c          1 II1       0.713000
     13 C9         -27.6490    -3.2010   -13.4230 c          1 II1       0.739000
     14 N2         -22.7220    -6.0560   -14.8230 n7         1 II1      -0.888400
     15 O1         -23.7700    -6.2800   -18.0280 o          1 II1      -0.773500
     16 O4         -22.7690    -4.0760   -10.9230 o          1 II1      -0.774000
     17 O5         -23.6790    -5.8510   -10.1330 o          1 II1      -0.774000
     18 O6         -27.5150    -2.6670   -14.5190 o          1 II1      -0.757000
     19 O7         -28.0990    -2.5960   -12.4560 o          1 II1      -0.757000
     20 H1         -25.1670    -5.4190   -14.0370 hn         1 II1       0.463000
     21 H3         -23.9760    -6.6880   -12.4620 h1         1 II1      -0.014300
     22 H4         -21.6680    -6.0540   -12.9800 h1         1 II1       0.016200
     23 H5         -22.1800    -4.4530   -13.5340 h1         1 II1       0.016200
     24 H7         -20.7580    -6.7240   -15.1060 h1         1 II1      -0.025300
     25 H8         -22.3810    -7.8980   -16.5790 hc         1 II1      -0.010800
     26 H9         -20.7970    -7.3470   -17.3090 hc         1 II1      -0.010800
     27 H13        -28.3080    -5.1540   -12.7550 h1         1 II1      -0.061300
     28 H14        -26.1800    -4.3660   -11.5160 h1         1 II1      -0.016800
     29 H15        -26.2880    -6.0700   -11.9890 h1         1 II1      -0.016800
     30 H16        -23.3690    -5.4160   -15.2990 hn         1 II1       0.449000
     31 O3         -21.4880    -3.7790   -16.2240 o          1 II1      -0.758500
     32 H10        -27.4950    -6.5870   -14.3200 hn         1 II1       0.367500
     33 O2         -19.5710    -4.7370   -16.0860 o          1 II1      -0.758500
     34 H11        -28.1980    -5.3740   -15.1280 hn         1 II1       0.367500
@<TRIPOS>BOND
     1     1     2 1   
     2     1    10 1   
     3     1    20 1   
     4     2     3 1   
     5     2    12 1   
     6     2    21 1   
     7     3    14 1   
     8     3    22 1   
     9     3    23 1   
    10     4     5 1   
    11     4    11 1   
    12     4    14 1   
    13     4    24 1   
    14     5     6 1   
    15     5    25 1   
    16     5    26 1   
    17     6     9 1   
    18     6    15 1   
    19     7     8 1   
    20     7    32 1   
    21     7    34 1   
    22     8    10 1   
    23     8    13 1   
    24     8    27 1   
    25    10    28 1   
    26    10    29 1   
    27    11    31 1   
    28    11    33 1   
    29    12    16 1   
    30    12    17 1   
    31    13    18 1   
    32    13    19 1   
    33    14    30 1   
@<TRIPOS>SUBSTRUCTURE
     1 II1         1 TEMP              0 ****  ****    0 ROOT
