@<TRIPOS>MOLECULE
II2
   41    44     1     0     0
SMALL
bcc


@<TRIPOS>ATOM
      1 O1           2.5720    -1.4670    -1.5000 o          1 II2      -0.556500
      2 C7           2.8790    -0.6700    -0.6520 c          1 II2       0.729100
      3 C6           4.1910    -0.0180    -0.4270 ca         1 II2      -0.086600
      4 C5           5.3560    -0.1620    -1.1340 ca         1 II2      -0.158000
      5 C4           6.4750     0.5930    -0.7190 ca         1 II2       0.213600
      6 N1           7.6360     0.5260    -1.4070 nv         1 II2      -0.856200
      7 C3           6.3500     1.4460     0.4000 ca         1 II2      -0.221000
      8 C2           5.1590     1.5700     1.0910 ca         1 II2      -0.005000
      9 C1           4.0680     0.8330     0.6610 ca         1 II2      -0.218600
     10 N2           2.0380    -0.1740     0.3360 n          1 II2      -0.451600
     11 C20          2.7010     0.7420     1.1730 c          1 II2       0.745100
     12 O2           2.1940     1.2890     2.1190 o          1 II2      -0.557500
     13 C8           0.6860    -0.5540     0.4930 ca         1 II2       0.046600
     14 C9          -0.3180     0.4040     0.4370 ca         1 II2      -0.108000
     15 C10         -1.6460     0.0340     0.5770 ca         1 II2      -0.116000
     16 C11         -1.9850    -1.3040     0.7520 ca         1 II2       0.026900
     17 C18         -0.9750    -2.2630     0.8010 ca         1 II2      -0.116000
     18 C19          0.3520    -1.8900     0.6840 ca         1 II2      -0.108000
     19 S           -3.6490    -1.8710     0.9420 ss         1 II2      -0.201800
     20 C12         -4.6150    -0.5290     0.3270 ca         1 II2      -0.072100
     21 C13         -4.7440    -0.3160    -1.0440 ca         1 II2      -0.033500
     22 C14         -5.5170     0.7210    -1.5270 ca         1 II2      -0.219500
     23 C15         -6.2010     1.5770    -0.6480 ca         1 II2       0.190600
     24 N3          -7.0170     2.5670    -1.1230 nv         1 II2      -0.833200
     25 C16         -6.0650     1.3550     0.7300 ca         1 II2      -0.219500
     26 C17         -5.2820     0.3200     1.2060 ca         1 II2      -0.033500
     27 H5           5.4280    -0.8310    -1.9820 ha         1 II2       0.154000
     28 H11N         7.7840    -0.2300    -2.0550 hn         1 II2       0.425800
     29 H12N         8.4710     0.9260    -1.0140 hn         1 II2       0.425800
     30 H3           7.2130     2.0170     0.7180 ha         1 II2       0.136000
     31 H2           5.0920     2.2360     1.9420 ha         1 II2       0.152000
     32 H9          -0.0710     1.4440     0.2720 ha         1 II2       0.141500
     33 H19          1.1260    -2.6430     0.7410 ha         1 II2       0.141500
     34 H10         -2.4140     0.7940     0.5340 ha         1 II2       0.142000
     35 H18         -1.2220    -3.3100     0.9290 ha         1 II2       0.142000
     36 H13         -4.2290    -0.9640    -1.7420 ha         1 II2       0.143000
     37 H17         -5.1850     0.1710     2.2740 ha         1 II2       0.143000
     38 H14         -5.6030     0.8730    -2.5960 ha         1 II2       0.133000
     39 H31N        -6.8580     2.8770    -2.0670 hn         1 II2       0.404300
     40 H32N        -7.2340     3.3190    -0.4910 hn         1 II2       0.404300
     41 H16         -6.5800     2.0040     1.4300 ha         1 II2       0.133000
@<TRIPOS>BOND
     1     1     2 2   
     2     2     3 1   
     3     2    10 1   
     4     3     4 ar  
     5     3     9 ar  
     6     4     5 ar  
     7     4    27 1   
     8     5     6 1   
     9     5     7 ar  
    10     6    28 1   
    11     6    29 1   
    12     7     8 ar  
    13     7    30 1   
    14     8     9 ar  
    15     8    31 1   
    16     9    11 1   
    17    10    11 1   
    18    10    13 1   
    19    11    12 2   
    20    13    14 ar  
    21    13    18 ar  
    22    14    15 ar  
    23    14    32 1   
    24    15    16 ar  
    25    15    34 1   
    26    16    17 ar  
    27    16    19 1   
    28    17    18 ar  
    29    17    35 1   
    30    18    33 1   
    31    19    20 1   
    32    20    21 ar  
    33    20    26 ar  
    34    21    22 ar  
    35    21    36 1   
    36    22    23 ar  
    37    22    38 1   
    38    23    24 1   
    39    23    25 ar  
    40    24    39 1   
    41    24    40 1   
    42    25    26 ar  
    43    25    41 1   
    44    26    37 1   
@<TRIPOS>SUBSTRUCTURE
     1 II2         1 TEMP              0 ****  ****    0 ROOT
