@<TRIPOS>MOLECULE
II2
   41    44     1     0     0
SMALL
No Charge or Current Charge


@<TRIPOS>ATOM
      1 O1           2.3700    -1.3550    -1.5740 o          1 II2      -0.481000
      2 C7           2.7410    -0.6190    -0.6690 c          1 II2       0.586600
      3 C6           4.0860     0.0120    -0.5240 ca         1 II2      -0.086600
      4 C5           5.2280    -0.0840    -1.3350 ca         1 II2      -0.140000
      5 C4           6.3770     0.6350    -0.9510 ca         1 II2       0.352000
      6 N1           7.5120     0.5700    -1.7100 nv         1 II2      -1.105000
      7 C3           6.3670     1.4280     0.2170 ca         1 II2      -0.203000
      8 C2           5.2110     1.5160     1.0220 ca         1 II2       0.013000
      9 C1           4.0820     0.7910     0.6190 ca         1 II2      -0.218600
     10 N2           1.9880    -0.1730     0.4290 n          1 II2      -0.317600
     11 C20          2.7390     0.6840     1.2510 c          1 II2       0.602600
     12 O2           2.3790     1.2190     2.2900 o          1 II2      -0.482000
     13 C8           0.6210    -0.5460     0.6810 ca         1 II2       0.046600
     14 C9          -0.3190     0.4170     1.1010 ca         1 II2      -0.090000
     15 C10         -1.6540     0.0530     1.3450 ca         1 II2      -0.098000
     16 C11         -2.0670    -1.2800     1.1690 ca         1 II2      -0.100000
     17 C18         -1.1350    -2.2460     0.7560 ca         1 II2      -0.098000
     18 C19          0.2000    -1.8820     0.5110 ca         1 II2      -0.090000
     19 S           -3.7660    -1.7570     1.4770 ss         1 II2       0.052000
     20 C12         -4.6240    -0.4850     0.5520 ca         1 II2      -0.199000
     21 C13         -4.2350    -0.1710    -0.7640 ca         1 II2      -0.015500
     22 C14         -4.9190     0.8290    -1.4770 ca         1 II2      -0.201500
     23 C15         -5.9890     1.5100    -0.8820 ca         1 II2       0.329000
     24 N3          -6.6510     2.4810    -1.5780 nv         1 II2      -1.082000
     25 C16         -6.3810     1.1950     0.4250 ca         1 II2      -0.201500
     26 C17         -5.7020     0.1970     1.1450 ca         1 II2      -0.015500
     27 H5           5.2230    -0.6960    -2.2320 ha         1 II2       0.136000
     28 H11N         7.5860    -0.1360    -2.4420 hn         1 II2       0.481000
     29 H12N         8.3850     0.9410    -1.3390 hn         1 II2       0.481000
     30 H3           7.2580     1.9800     0.5050 ha         1 II2       0.118000
     31 H2           5.1980     2.1250     1.9250 ha         1 II2       0.134000
     32 H9          -0.0230     1.4550     1.2290 ha         1 II2       0.123500
     33 H19          0.9080    -2.6460     0.2020 ha         1 II2       0.123500
     34 H10         -2.3680     0.8080     1.6690 ha         1 II2       0.124000
     35 H18         -1.4460    -3.2810     0.6240 ha         1 II2       0.124000
     36 H13         -3.4070    -0.6990    -1.2330 ha         1 II2       0.125000
     37 H17         -6.0100    -0.0440     2.1610 ha         1 II2       0.125000
     38 H14         -4.6150     1.0680    -2.4920 ha         1 II2       0.115000
     39 H31N        -6.2630     2.8220    -2.4560 hn         1 II2       0.459500
     40 H32N        -7.3120     3.0860    -1.0940 hn         1 II2       0.459500
     41 H16         -7.2120     1.7190     0.8880 ha         1 II2       0.115000
@<TRIPOS>BOND
     1     1     2 2   
     2     2     3 1   
     3     2    10 1   
     4     3     4 ar  
     5     3     9 ar  
     6     4     5 ar  
     7     4    27 1   
     8     5     6 1   
     9     5     7 ar  
    10     6    28 1   
    11     6    29 1   
    12     7     8 ar  
    13     7    30 1   
    14     8     9 ar  
    15     8    31 1   
    16     9    11 1   
    17    10    11 1   
    18    10    13 1   
    19    11    12 2   
    20    13    14 ar  
    21    13    18 ar  
    22    14    15 ar  
    23    14    32 1   
    24    15    16 ar  
    25    15    34 1   
    26    16    17 ar  
    27    16    19 1   
    28    17    18 ar  
    29    17    35 1   
    30    18    33 1   
    31    19    20 1   
    32    20    21 ar  
    33    20    26 ar  
    34    21    22 ar  
    35    21    36 1   
    36    22    23 ar  
    37    22    38 1   
    38    23    24 1   
    39    23    25 ar  
    40    24    39 1   
    41    24    40 1   
    42    25    26 ar  
    43    25    41 1   
    44    26    37 1   
@<TRIPOS>SUBSTRUCTURE
     1 II2         1 TEMP              0 ****  ****    0 ROOT
