@<TRIPOS>MOLECULE
II3
   96    97     1     0     0
SMALL
abcg2


@<TRIPOS>ATOM
      1 C03        219.7740   162.7840   149.3370 c6         1 II3      -0.031000
      2 C04        218.5040   163.3150   148.6060 c6         1 II3       0.013700
      3 C05        220.7620   163.9450   149.4700 c6         1 II3      -0.107400
      4 C06        220.2100   165.0750   150.3250 c6         1 II3       0.208500
      5 C07        218.0660   164.6850   149.0870 c2         1 II3      -0.101400
      6 C08        219.4450   162.2210   150.7220 c3         1 II3      -0.085100
      7 C09        220.4220   161.6800   148.5000 c3         1 II3      -0.085100
      8 C10        218.8460   165.4560   149.8450 c2         1 II3      -0.217200
      9 C11        201.5670   152.1420   158.8270 c6         1 II3       0.004200
     10 C12        217.4120   162.2800   148.5920 c2         1 II3      -0.195200
     11 C13        200.4350   151.1150   158.9580 c6         1 II3      -0.069400
     12 C14        200.3780   150.4830   160.3320 c6         1 II3       0.174300
     13 C15        216.7630   165.2110   148.5570 c3         1 II3      -0.053900
     14 C16        201.6300   153.0260   160.0710 ce         1 II3       0.025100
     15 C17        200.0750   151.5650   161.3560 c6         1 II3      -0.082200
     16 C18        200.9530   152.7720   161.2090 c2         1 II3      -0.079400
     17 C20        202.9160   151.4350   158.6410 c3         1 II3      -0.082100
     18 C21        216.4580   162.1460   149.5200 ce         1 II3      -0.186000
     19 C22        201.0130   153.6520   162.4160 c3         1 II3      -0.056900
     20 C23        202.4860   154.1570   159.9770 cg         1 II3      -0.133300
     21 C24        215.4460   161.1020   149.5530 ce         1 II3      -0.062200
     22 C25        215.4380   160.0890   148.4490 c3         1 II3      -0.055900
     23 C26        214.5790   161.0910   150.5950 cf         1 II3      -0.182000
     24 C27        203.2360   155.0990   159.8380 ch         1 II3      -0.171300
     25 C28        204.1110   156.2090   159.7140 cf         1 II3       0.047100
     26 C29        213.5320   160.1400   150.8500 cf         1 II3      -0.169000
     27 C30        204.1040   157.1790   160.8620 c3         1 II3      -0.049900
     28 C31        204.8790   156.3150   158.6020 ce         1 II3      -0.168000
     29 C32        212.7410   160.2050   151.9440 ce         1 II3      -0.177000
     30 C33        211.6860   159.2750   152.2770 ce         1 II3      -0.060200
     31 C34        205.8360   157.3460   158.3150 ce         1 II3      -0.175000
     32 C35        211.4230   158.1350   151.3390 c3         1 II3      -0.055900
     33 C36        210.9950   159.4790   153.4300 cf         1 II3      -0.178000
     34 C37        206.5820   157.3400   157.1870 cf         1 II3      -0.170000
     35 C38        207.5870   158.3150   156.8340 cf         1 II3      -0.065200
     36 C39        209.9310   158.6790   153.9600 cf         1 II3      -0.169000
     37 C40        208.2640   158.1380   155.6680 ce         1 II3      -0.173000
     38 C41        209.3130   158.9540   155.1350 ce         1 II3      -0.173000
     39 C42        207.8320   159.4560   157.7760 c3         1 II3      -0.055900
     40 O01        221.0180   166.2380   150.2580 oh         1 II3      -0.657000
     41 O02        199.3900   149.4740   160.3190 oh         1 II3      -0.658000
     42 H1         218.7980   163.4600   147.5560 hc         1 II3       0.057700
     43 H2         220.9910   164.3420   148.4740 hc         1 II3       0.047700
     44 H3         221.7030   163.5780   149.8930 hc         1 II3       0.047700
     45 H4         220.1460   164.7390   151.3710 h1         1 II3       0.037700
     46 H6         220.3670   162.0380   151.2780 hc         1 II3       0.035700
     47 H7         218.8270   162.8990   151.3140 hc         1 II3       0.035700
     48 H8         218.9100   161.2750   150.6520 hc         1 II3       0.035700
     49 H9         221.3330   161.3230   148.9830 hc         1 II3       0.035700
     50 H10        219.7570   160.8230   148.3790 hc         1 II3       0.035700
     51 H11        220.6900   162.0420   147.5060 hc         1 II3       0.035700
     52 H12        218.4950   166.4450   150.1300 ha         1 II3       0.185000
     53 H14        217.4640   161.5660   147.7770 ha         1 II3       0.169000
     54 H15        199.4740   151.6030   158.7590 hc         1 II3       0.056700
     55 H16        200.5670   150.3490   158.1870 hc         1 II3       0.056700
     56 H17        201.3590   150.0490   160.5710 h1         1 II3       0.034700
     57 H18        216.6530   166.2730   148.7710 hc         1 II3       0.042033
     58 H19        216.7090   165.0770   147.4730 hc         1 II3       0.042033
     59 H20        215.8980   164.6940   148.9730 hc         1 II3       0.042033
     60 H21        199.0260   151.8730   161.2600 hc         1 II3       0.054700
     61 H22        200.1790   151.1710   162.3730 hc         1 II3       0.054700
     62 H23        202.1010   153.7010   157.3920 hc         1 II3       0.037867
     63 H24        201.1890   152.3570   156.7090 hc         1 II3       0.037867
     64 H25        200.3660   153.5680   157.6950 hc         1 II3       0.037867
     65 H26        203.1550   150.7790   159.4780 hc         1 II3       0.037867
     66 H27        202.9030   150.8300   157.7310 hc         1 II3       0.037867
     67 H28        203.7280   152.1570   158.5430 hc         1 II3       0.037867
     68 H29        216.4230   162.8550   150.3440 ha         1 II3       0.176000
     69 H30        200.0040   153.9120   162.7450 hc         1 II3       0.045367
     70 H31        201.4790   153.1200   163.2500 hc         1 II3       0.045367
     71 H32        201.5660   154.5740   162.2500 hc         1 II3       0.045367
     72 H33        214.6260   159.3730   148.5390 hc         1 II3       0.042033
     73 H34        215.3420   160.5760   147.4760 hc         1 II3       0.042033
     74 H35        216.3740   159.5280   148.4290 hc         1 II3       0.042033
     75 H36        214.6860   161.8800   151.3350 ha         1 II3       0.169000
     76 H37        213.3840   159.3350   150.1390 ha         1 II3       0.173000
     77 H38        203.1130   157.6170   160.9880 hc         1 II3       0.045367
     78 H39        204.3480   156.6690   161.7950 hc         1 II3       0.045367
     79 H40        204.8140   157.9910   160.7290 hc         1 II3       0.045367
     80 H41        204.7760   155.5370   157.8510 ha         1 II3       0.176000
     81 H42        212.9030   161.0180   152.6480 ha         1 II3       0.170000
     82 H43        205.9690   158.1440   159.0360 ha         1 II3       0.175000
     83 H44        210.5960   157.5060   151.6560 hc         1 II3       0.043033
     84 H45        211.1900   158.5020   150.3370 hc         1 II3       0.043033
     85 H46        212.3050   157.4990   151.2430 hc         1 II3       0.043033
     86 H47        211.2800   160.3390   154.0310 ha         1 II3       0.169000
     87 H48        206.4330   156.5290   156.4780 ha         1 II3       0.171000
     88 H49        209.6040   157.8060   153.4050 ha         1 II3       0.172000
     89 H50        207.9920   157.2740   155.0670 ha         1 II3       0.169000
     90 H51        209.6380   159.8270   155.6920 ha         1 II3       0.172000
     91 H52        208.1210   159.0910   158.7630 hc         1 II3       0.042700
     92 H53        208.6130   160.1300   157.4340 hc         1 II3       0.042700
     93 H54        206.9250   160.0480   157.9120 hc         1 II3       0.042700
     94 H55        221.8810   166.0170   150.6230 ho         1 II3       0.439000
     95 H56        199.3770   149.0530   161.1840 ho         1 II3       0.442000
     96 C19        201.2910   152.9970   157.5870 c3         1 II3      -0.082100
@<TRIPOS>BOND
     1     1     2 1   
     2     1     3 1   
     3     1     6 1   
     4     1     7 1   
     5     2     5 1   
     6     2    10 1   
     7     2    42 1   
     8     3     4 1   
     9     3    43 1   
    10     3    44 1   
    11     4     8 1   
    12     4    40 1   
    13     4    45 1   
    14     5     8 2   
    15     5    13 1   
    16     6    46 1   
    17     6    47 1   
    18     6    48 1   
    19     7    49 1   
    20     7    50 1   
    21     7    51 1   
    22     8    52 1   
    23     9    11 1   
    24     9    14 1   
    25     9    17 1   
    26     9    96 1   
    27    10    18 2   
    28    10    53 1   
    29    11    12 1   
    30    11    54 1   
    31    11    55 1   
    32    12    15 1   
    33    12    41 1   
    34    12    56 1   
    35    13    57 1   
    36    13    58 1   
    37    13    59 1   
    38    14    16 2   
    39    14    20 1   
    40    15    16 1   
    41    15    60 1   
    42    15    61 1   
    43    16    19 1   
    44    17    65 1   
    45    17    66 1   
    46    17    67 1   
    47    18    21 1   
    48    18    68 1   
    49    19    69 1   
    50    19    70 1   
    51    19    71 1   
    52    20    24 3   
    53    21    22 1   
    54    21    23 2   
    55    22    72 1   
    56    22    73 1   
    57    22    74 1   
    58    23    26 1   
    59    23    75 1   
    60    24    25 1   
    61    25    27 1   
    62    25    28 2   
    63    26    29 2   
    64    26    76 1   
    65    27    77 1   
    66    27    78 1   
    67    27    79 1   
    68    28    31 1   
    69    28    80 1   
    70    29    30 1   
    71    29    81 1   
    72    30    32 1   
    73    30    33 2   
    74    31    34 2   
    75    31    82 1   
    76    32    83 1   
    77    32    84 1   
    78    32    85 1   
    79    33    36 1   
    80    33    86 1   
    81    34    35 1   
    82    34    87 1   
    83    35    37 2   
    84    35    39 1   
    85    36    38 2   
    86    36    88 1   
    87    37    38 1   
    88    37    89 1   
    89    38    90 1   
    90    39    91 1   
    91    39    92 1   
    92    39    93 1   
    93    40    94 1   
    94    41    95 1   
    95    62    96 1   
    96    63    96 1   
    97    64    96 1   
@<TRIPOS>SUBSTRUCTURE
     1 II3         1 TEMP              0 ****  ****    0 ROOT
