@<TRIPOS>MOLECULE
II3
   96    97     1     0     0
SMALL
No Charge or Current Charge


@<TRIPOS>ATOM
      1 C03        219.9020   163.0340   148.9250 c6         1 II3      -0.031000
      2 C04        218.4910   163.5560   148.4370 c6         1 II3       0.013700
      3 C05        220.9340   164.1580   148.7340 c6         1 II3      -0.107400
      4 C06        220.1840   165.8210   149.8630 c6         1 II3       0.208500
      5 C07        217.9630   164.9140   149.0070 c2         1 II3      -0.101400
      6 C08        219.8920   162.6020   150.4250 c3         1 II3      -0.085100
      7 C09        220.3550   161.7950   148.0900 c3         1 II3      -0.085100
      8 C10        218.7000   165.8720   149.6160 c2         1 II3      -0.217200
      9 C11        201.3020   152.1440   158.7960 c6         1 II3       0.004200
     10 C12        217.4430   162.4410   148.5010 c2         1 II3      -0.195200
     11 C13        199.9940   151.3020   158.7350 c6         1 II3      -0.069400
     12 C14        199.7110   150.5940   160.0740 c6         1 II3       0.174300
     13 C15        216.5000   165.1960   148.6830 c3         1 II3      -0.053900
     14 C16        201.3190   153.0540   160.0610 ce         1 II3       0.025100
     15 C17        199.5210   151.6470   161.1870 c6         1 II3      -0.082200
     16 C18        200.5390   152.7920   161.1540 c2         1 II3      -0.079400
     17 C20        202.5570   151.2140   158.8420 c3         1 II3      -0.082100
     18 C21        216.7830   162.0820   149.6280 ce         1 II3      -0.186000
     19 C22        200.5210   153.5990   162.4510 c3         1 II3      -0.056900
     20 C23        202.2600   154.1410   160.0810 cg         1 II3      -0.133300
     21 C24        215.7650   161.0190   149.7420 ce         1 II3      -0.062200
     22 C25        215.6970   159.9920   148.6140 c3         1 II3      -0.055900
     23 C26        214.9780   160.9480   150.8570 cf         1 II3      -0.182000
     24 C27        203.0940   155.0320   160.0540 ch         1 II3      -0.171300
     25 C28        204.0900   156.0520   159.9530 cf         1 II3       0.047100
     26 C29        213.9290   159.9720   151.1410 cf         1 II3      -0.169000
     27 C30        204.1940   156.9280   161.1940 c3         1 II3      -0.049900
     28 C31        204.8410   156.1730   158.8180 ce         1 II3      -0.168000
     29 C32        213.2240   159.9330   152.3080 ce         1 II3      -0.177000
     30 C33        212.1420   158.9930   152.6680 ce         1 II3      -0.060200
     31 C34        205.9030   157.1550   158.5390 ce         1 II3      -0.175000
     32 C35        211.9930   157.7370   151.8130 c3         1 II3      -0.055900
     33 C36        211.3660   159.2390   153.7660 cf         1 II3      -0.178000
     34 C37        206.6030   157.2000   157.3700 cf         1 II3      -0.170000
     35 C38        207.6770   158.1320   157.0120 cf         1 II3      -0.065200
     36 C39        210.2600   158.4280   154.2700 cf         1 II3      -0.169000
     37 C40        208.4540   157.8860   155.9150 ce         1 II3      -0.173000
     38 C41        209.5680   158.7040   155.4080 ce         1 II3      -0.173000
     39 C42        207.8320   159.3910   157.8620 c3         1 II3      -0.055900
     40 O01        220.7940   167.0310   149.4220 oh         1 II3      -0.657000
     41 O02        198.5380   149.7820   159.9610 oh         1 II3      -0.658000
     42 H1         218.6860   163.8680   146.7360 hc         1 II3       0.057700
     43 H2         221.0120   164.4340   147.6740 hc         1 II3       0.047700
     44 H3         221.9360   163.8700   149.0800 hc         1 II3       0.047700
     45 H4         220.3690   165.6540   150.9350 h1         1 II3       0.037700
     46 H6         220.9110   162.4100   150.7840 hc         1 II3       0.035700
     47 H7         219.4580   163.3740   151.0700 hc         1 II3       0.035700
     48 H8         219.3190   161.6810   150.5830 hc         1 II3       0.035700
     49 H9         221.3630   161.4690   148.3750 hc         1 II3       0.035700
     50 H10        219.6870   160.9370   148.2320 hc         1 II3       0.035700
     51 H11        220.3760   162.0220   147.0180 hc         1 II3       0.035700
     52 H12        218.2290   166.8020   149.9340 ha         1 II3       0.185000
     53 H14        217.2510   161.9460   147.5500 ha         1 II3       0.169000
     54 H15        199.1420   151.9500   158.4840 hc         1 II3       0.056700
     55 H16        200.0610   150.5590   157.9290 hc         1 II3       0.056700
     56 H17        200.5710   149.9600   160.3320 h1         1 II3       0.034700
     57 H18        216.2270   166.2360   148.8970 hc         1 II3       0.042033
     58 H19        216.2900   165.0230   147.6210 hc         1 II3       0.042033
     59 H20        215.8210   164.5660   149.2680 hc         1 II3       0.042033
     60 H21        198.5150   152.0830   161.1090 hc         1 II3       0.054700
     61 H22        199.5590   151.1420   162.1630 hc         1 II3       0.054700
     62 H23        202.3580   153.5170   157.3950 hc         1 II3       0.037867
     63 H24        201.3100   152.3510   156.5930 hc         1 II3       0.037867
     64 H25        200.6030   153.7380   157.4310 hc         1 II3       0.037867
     65 H26        202.6090   150.6430   159.7760 hc         1 II3       0.037867
     66 H27        202.5560   150.4960   158.0120 hc         1 II3       0.037867
     67 H28        203.4870   151.7910   158.7720 hc         1 II3       0.037867
     68 H29        216.9900   162.6350   150.5450 ha         1 II3       0.176000
     69 H30        199.4990   153.9010   162.7080 hc         1 II3       0.045367
     70 H31        200.9080   153.0020   163.2850 hc         1 II3       0.045367
     71 H32        201.1180   154.5160   162.4050 hc         1 II3       0.045367
     72 H33        215.3840   159.0050   148.9690 hc         1 II3       0.042033
     73 H34        214.9920   160.3080   147.8350 hc         1 II3       0.042033
     74 H35        216.6730   159.8360   148.1410 hc         1 II3       0.042033
     75 H36        215.1300   161.7110   151.6230 ha         1 II3       0.169000
     76 H37        213.6880   159.2530   150.3580 ha         1 II3       0.173000
     77 H38        203.2390   157.4230   161.4060 hc         1 II3       0.045367
     78 H39        204.4560   156.3290   162.0750 hc         1 II3       0.045367
     79 H40        204.9480   157.7150   161.1080 hc         1 II3       0.045367
     80 H41        204.6390   155.4630   158.0140 ha         1 II3       0.176000
     81 H42        213.4640   160.6850   153.0610 ha         1 II3       0.170000
     82 H43        206.1430   157.8710   159.3240 ha         1 II3       0.175000
     83 H44        211.6040   156.8880   152.3840 hc         1 II3       0.043033
     84 H45        211.3160   157.9120   150.9690 hc         1 II3       0.043033
     85 H46        212.9550   157.4000   151.4090 hc         1 II3       0.043033
     86 H47        211.5750   160.1490   154.3310 ha         1 II3       0.169000
     87 H48        206.3570   156.4490   156.6160 ha         1 II3       0.171000
     88 H49        209.9610   157.5510   153.6930 ha         1 II3       0.172000
     89 H50        208.2490   156.9770   155.3470 ha         1 II3       0.169000
     90 H51        209.8640   159.5790   155.9880 ha         1 II3       0.172000
     91 H52        208.5240   159.2220   158.6950 hc         1 II3       0.042700
     92 H53        208.2070   160.2410   157.2820 hc         1 II3       0.042700
     93 H54        206.8760   159.7240   158.2810 hc         1 II3       0.042700
     94 H55        221.7600   166.9200   149.5640 ho         1 II3       0.439000
     95 H56        198.4410   149.3070   160.8160 ho         1 II3       0.442000
     96 C19        201.4020   152.9880   157.4810 c3         1 II3      -0.082100
@<TRIPOS>BOND
     1     1     2 1   
     2     1     3 1   
     3     1     6 1   
     4     1     7 1   
     5     2     5 1   
     6     2    10 1   
     7     2    42 1   
     8     3     4 1   
     9     3    43 1   
    10     3    44 1   
    11     4     8 1   
    12     4    40 1   
    13     4    45 1   
    14     5     8 2   
    15     5    13 1   
    16     6    46 1   
    17     6    47 1   
    18     6    48 1   
    19     7    49 1   
    20     7    50 1   
    21     7    51 1   
    22     8    52 1   
    23     9    11 1   
    24     9    14 1   
    25     9    17 1   
    26     9    96 1   
    27    10    18 2   
    28    10    53 1   
    29    11    12 1   
    30    11    54 1   
    31    11    55 1   
    32    12    15 1   
    33    12    41 1   
    34    12    56 1   
    35    13    57 1   
    36    13    58 1   
    37    13    59 1   
    38    14    16 2   
    39    14    20 1   
    40    15    16 1   
    41    15    60 1   
    42    15    61 1   
    43    16    19 1   
    44    17    65 1   
    45    17    66 1   
    46    17    67 1   
    47    18    21 1   
    48    18    68 1   
    49    19    69 1   
    50    19    70 1   
    51    19    71 1   
    52    20    24 3   
    53    21    22 1   
    54    21    23 2   
    55    22    72 1   
    56    22    73 1   
    57    22    74 1   
    58    23    26 1   
    59    23    75 1   
    60    24    25 1   
    61    25    27 1   
    62    25    28 2   
    63    26    29 2   
    64    26    76 1   
    65    27    77 1   
    66    27    78 1   
    67    27    79 1   
    68    28    31 1   
    69    28    80 1   
    70    29    30 1   
    71    29    81 1   
    72    30    32 1   
    73    30    33 2   
    74    31    34 2   
    75    31    82 1   
    76    32    83 1   
    77    32    84 1   
    78    32    85 1   
    79    33    36 1   
    80    33    86 1   
    81    34    35 1   
    82    34    87 1   
    83    35    37 2   
    84    35    39 1   
    85    36    38 2   
    86    36    88 1   
    87    37    38 1   
    88    37    89 1   
    89    38    90 1   
    90    39    91 1   
    91    39    92 1   
    92    39    93 1   
    93    40    94 1   
    94    41    95 1   
    95    62    96 1   
    96    63    96 1   
    97    64    96 1   
@<TRIPOS>SUBSTRUCTURE
     1 II3         1 TEMP              0 ****  ****    0 ROOT
