@<TRIPOS>MOLECULE
II4
   30    32     1     0     0
SMALL
abcg2


@<TRIPOS>ATOM
      1 C2           3.7440     0.5370    -0.2030 ca         1 II4       0.259000
      2 C3           3.3440    -0.7690     0.0610 ca         1 II4      -0.125000
      3 C4           1.9830    -1.0320     0.2070 ca         1 II4       0.106400
      4 C5           1.0390    -0.0040     0.0930 ca         1 II4      -0.109200
      5 C6           1.4190     1.3030    -0.1880 ca         1 II4      -0.072000
      6 N7          -0.1870    -0.6220     0.2680 na         1 II4      -0.088400
      7 C8           0.0810    -1.9400     0.4750 cc         1 II4       0.432700
      8 N9           1.3480    -2.2300     0.4490 nd         1 II4      -0.581100
      9 N2           5.0890     0.8670    -0.2960 nv         1 II4      -1.060000
     10 C10         -3.7640    -0.0810    -0.4990 ca         1 II4      -0.057300
     11 C11         -2.4850    -0.6310    -0.4810 ca         1 II4      -0.124000
     12 C30          2.7700     1.5540    -0.3280 ca         1 II4      -0.149000
     13 C13         -1.7020     1.1420     0.9570 ca         1 II4      -0.120000
     14 C80         -1.4660    -0.0290     0.2480 ca         1 II4       0.015800
     15 C14         -2.9670     1.7070     0.9180 ca         1 II4      -0.093000
     16 C15         -3.9900     1.1010     0.2020 ca         1 II4      -0.114000
     17 H3           4.0710    -1.5680     0.1460 ha         1 II4       0.129000
     18 H21N         5.6910     0.1020    -0.5570 hn         1 II4       0.438000
     19 H22N         5.2830     1.6780    -0.8620 hn         1 II4       0.438000
     20 H30          3.0960     2.5640    -0.5450 ha         1 II4       0.112000
     21 H6           0.7010     2.1040    -0.2990 ha         1 II4       0.121000
     22 H91C        -5.3960    -1.4690    -0.6060 hc         1 II4       0.046033
     23 H92C        -5.6110    -0.0390    -1.6040 hc         1 II4       0.046033
     24 H93C        -4.4980    -1.3130    -2.1080 hc         1 II4       0.046033
     25 H8          -0.7160    -2.6460     0.6610 h5         1 II4       0.062800
     26 H11         -2.2790    -1.5300    -1.0500 ha         1 II4       0.123000
     27 H15         -4.9740     1.5520     0.1880 ha         1 II4       0.117000
     28 H13         -0.9160     1.6000     1.5430 ha         1 II4       0.131000
     29 H14         -3.1580     2.6230     1.4620 ha         1 II4       0.119000
     30 C9          -4.8730    -0.7580    -1.2490 c3         1 II4      -0.049800
@<TRIPOS>BOND
     1     1     2 ar  
     2     1     9 1   
     3     1    12 ar  
     4     2     3 ar  
     5     2    17 1   
     6     3     4 ar  
     7     3     8 1   
     8     4     5 ar  
     9     4     6 1   
    10     5    12 ar  
    11     5    21 1   
    12     6     7 1   
    13     6    14 1   
    14     7     8 2   
    15     7    25 1   
    16     9    18 1   
    17     9    19 1   
    18    10    11 ar  
    19    10    16 ar  
    20    10    30 1   
    21    11    14 ar  
    22    11    26 1   
    23    12    20 1   
    24    13    14 ar  
    25    13    15 ar  
    26    13    28 1   
    27    15    16 ar  
    28    15    29 1   
    29    16    27 1   
    30    22    30 1   
    31    23    30 1   
    32    24    30 1   
@<TRIPOS>SUBSTRUCTURE
     1 II4         1 TEMP              0 ****  ****    0 ROOT
