@<TRIPOS>MOLECULE
II4
   30    32     1     0     0
SMALL
No Charge or Current Charge


@<TRIPOS>ATOM
      1 C2           3.6870     0.5370    -0.3430 ca         1 II4       0.259000
      2 C3           3.3130    -0.7740     0.0180 ca         1 II4      -0.125000
      3 C4           1.9600    -1.0390     0.2640 ca         1 II4       0.106400
      4 C5           1.0280    -0.0430     0.1580 ca         1 II4      -0.109200
      5 C6           1.3510     1.2710    -0.2040 ca         1 II4      -0.072000
      6 N7          -0.1610    -0.6300     0.4590 na         1 II4      -0.088400
      7 C8           0.0600    -1.9820     0.7180 cc         1 II4       0.432700
      8 N9           1.3810    -2.2620     0.6170 nd         1 II4      -0.581100
      9 N2           5.0040     0.8310    -0.5920 nv         1 II4      -1.060000
     10 C10         -3.6980    -0.0500    -0.5340 ca         1 II4      -0.057300
     11 C11         -2.4160    -0.6270    -0.4500 ca         1 II4      -0.124000
     12 C30          2.7100     1.5540    -0.4550 ca         1 II4      -0.149000
     13 C13         -1.7310     1.0970     1.1250 ca         1 II4      -0.120000
     14 C80         -1.4280    -0.0550     0.3760 ca         1 II4       0.015800
     15 C14         -3.0090     1.6750     1.0470 ca         1 II4      -0.093000
     16 C15         -3.9900     1.1020     0.2200 ca         1 II4      -0.114000
     17 H3           4.0520    -1.5640     0.1030 ha         1 II4       0.129000
     18 H21N         5.7010     0.0890    -0.6210 hn         1 II4       0.438000
     19 H22N         5.2670     1.7460    -0.9550 hn         1 II4       0.438000
     20 H30          3.0020     2.5620    -0.7370 ha         1 II4       0.112000
     21 H6           0.5890     2.0430    -0.2920 ha         1 II4       0.121000
     22 H91C        -5.3160    -1.4490    -0.8900 hc         1 II4       0.046033
     23 H92C        -5.4810     0.0770    -1.7750 hc         1 II4       0.046033
     24 H93C        -4.3130    -1.1340    -2.3160 hc         1 II4       0.046033
     25 H8          -0.7380    -2.6740     0.9610 h5         1 II4       0.062800
     26 H11         -2.1880    -1.5160    -1.0340 ha         1 II4       0.123000
     27 H15         -4.9780     1.5540     0.1660 ha         1 II4       0.117000
     28 H13         -0.9780     1.5420     1.7710 ha         1 II4       0.131000
     29 H14         -3.2410     2.5650     1.6280 ha         1 II4       0.119000
     30 C9          -4.7600    -0.6720    -1.4280 c3         1 II4      -0.049800
@<TRIPOS>BOND
     1     1     2 ar  
     2     1     9 1   
     3     1    12 ar  
     4     2     3 ar  
     5     2    17 1   
     6     3     4 ar  
     7     3     8 1   
     8     4     5 ar  
     9     4     6 1   
    10     5    12 ar  
    11     5    21 1   
    12     6     7 1   
    13     6    14 1   
    14     7     8 2   
    15     7    25 1   
    16     9    18 1   
    17     9    19 1   
    18    10    11 ar  
    19    10    16 ar  
    20    10    30 1   
    21    11    14 ar  
    22    11    26 1   
    23    12    20 1   
    24    13    14 ar  
    25    13    15 ar  
    26    13    28 1   
    27    15    16 ar  
    28    15    29 1   
    29    16    27 1   
    30    22    30 1   
    31    23    30 1   
    32    24    30 1   
@<TRIPOS>SUBSTRUCTURE
     1 II4         1 TEMP              0 ****  ****    0 ROOT
