@<TRIPOS>MOLECULE
II6
   30    30     1     0     0
SMALL
bcc


@<TRIPOS>ATOM
      1 C1           1.2580    -0.9290     0.1940 c6         1 II6      -0.064400
      2 C2          -1.2580    -0.9540     0.1760 c6         1 II6      -0.065400
      3 C3          -0.0190     1.2190     0.2760 c6         1 II6      -0.073400
      4 C4           0.0110    -1.6710    -0.2810 c6         1 II6      -0.062700
      5 C5           1.2550     0.5400    -0.2160 c6         1 II6      -0.056700
      6 C6          -1.2740     0.5170    -0.2350 c6         1 II6      -0.060700
      7 C7           0.0210    -3.1220     0.1840 c3         1 II6      -0.084100
      8 C8           2.4880     1.2880     0.2790 c3         1 II6       0.151800
      9 C9          -2.5140     1.2450     0.2550 c3         1 II6       0.143400
     10 N10          3.7160     0.7360    -0.2760 n8         1 II6      -0.883800
     11 O11         -3.6660     0.6640    -0.3170 oh         1 II6      -0.598800
     12 H11C         1.3180    -0.9920     1.2900 hc         1 II6       0.047700
     13 H12C         2.1550    -1.4210    -0.1910 hc         1 II6       0.047700
     14 H4           0.0180    -1.6630    -1.3790 hc         1 II6       0.043700
     15 H5           1.2540     0.5920    -1.3150 hc         1 II6       0.043700
     16 H21C        -2.1340    -1.4700    -0.2230 hc         1 II6       0.044700
     17 H22C        -1.3320    -1.0180     1.2710 hc         1 II6       0.044700
     18 H6          -1.2650     0.5740    -1.3320 hc         1 II6       0.057700
     19 H31C        -0.0260     1.2170     1.3740 hc         1 II6       0.036200
     20 H32C        -0.0270     2.2710    -0.0310 hc         1 II6       0.036200
     21 H71C         0.0120    -3.1810     1.2760 hc         1 II6       0.032033
     22 H72C        -0.8540    -3.6650    -0.1810 hc         1 II6       0.032033
     23 H73C         0.9100    -3.6490    -0.1670 hc         1 II6       0.032033
     24 H81C         2.3560     2.3580     0.0560 h1         1 II6       0.026700
     25 H82C         2.5380     1.2080     1.3690 h1         1 II6       0.026700
     26 H91C        -2.5460     1.2000     1.3530 h1         1 II6       0.015200
     27 H92C        -2.4320     2.3080    -0.0150 h1         1 II6       0.015200
     28 H101         3.7280     0.8970    -1.2760 hn         1 II6       0.335800
     29 H102         4.5090     1.2470     0.0900 hn         1 II6       0.335800
     30 H11         -4.4350     1.1410     0.0070 ho         1 II6       0.402000
@<TRIPOS>BOND
     1     1     4 1   
     2     1     5 1   
     3     1    12 1   
     4     1    13 1   
     5     2     4 1   
     6     2     6 1   
     7     2    16 1   
     8     2    17 1   
     9     3     5 1   
    10     3     6 1   
    11     3    19 1   
    12     3    20 1   
    13     4     7 1   
    14     4    14 1   
    15     5     8 1   
    16     5    15 1   
    17     6     9 1   
    18     6    18 1   
    19     7    21 1   
    20     7    22 1   
    21     7    23 1   
    22     8    10 1   
    23     8    24 1   
    24     8    25 1   
    25     9    11 1   
    26     9    26 1   
    27     9    27 1   
    28    10    28 1   
    29    10    29 1   
    30    11    30 1   
@<TRIPOS>SUBSTRUCTURE
     1 II6         1 TEMP              0 ****  ****    0 ROOT
