@<TRIPOS>MOLECULE
II6
   30    30     1     0     0
SMALL
No Charge or Current Charge


@<TRIPOS>ATOM
      1 C1           1.2750    -0.9560     0.2260 c6         1 II6      -0.064400
      2 C2          -1.2790    -0.9750     0.2110 c6         1 II6      -0.065400
      3 C3          -0.0180     1.2410     0.2750 c6         1 II6      -0.073400
      4 C4           0.0060    -1.6980    -0.2740 c6         1 II6      -0.062700
      5 C5           1.2790     0.5370    -0.2130 c6         1 II6      -0.056700
      6 C6          -1.2980     0.5180    -0.2280 c6         1 II6      -0.060700
      7 C7           0.0140    -3.1880     0.1590 c3         1 II6      -0.084100
      8 C8           2.5420     1.3020     0.2870 c3         1 II6       0.151800
      9 C9          -2.5810     1.2580     0.2530 c3         1 II6       0.166600
     10 N10          3.8170     0.7840    -0.2510 n8         1 II6      -0.994200
     11 O11         -3.7730     0.7150    -0.3270 oh         1 II6      -0.661000
     12 H11C         1.3350    -1.0200     1.3220 hc         1 II6       0.047700
     13 H12C         2.1680    -1.4630    -0.1630 hc         1 II6       0.047700
     14 H4           0.0120    -1.6980    -1.3730 hc         1 II6       0.043700
     15 H5           1.3010     0.5810    -1.3110 hc         1 II6       0.043700
     16 H21C        -2.1610    -1.4930    -0.1890 hc         1 II6       0.044700
     17 H22C        -1.3520    -1.0400     1.3060 hc         1 II6       0.044700
     18 H6          -1.3110     0.5620    -1.3260 hc         1 II6       0.057700
     19 H31C        -0.0250     1.2850     1.3730 hc         1 II6       0.036200
     20 H32C        -0.0240     2.2830    -0.0760 hc         1 II6       0.036200
     21 H71C         0.0080    -3.2870     1.2520 hc         1 II6       0.032033
     22 H72C        -0.8640    -3.7180    -0.2290 hc         1 II6       0.032033
     23 H73C         0.9040    -3.7060    -0.2190 hc         1 II6       0.032033
     24 H81C         2.4550     2.3580    -0.0060 h1         1 II6       0.026700
     25 H82C         2.5810     1.2560     1.3840 h1         1 II6       0.026700
     26 H91C        -2.6320     1.2000     1.3490 h1         1 II6       0.015200
     27 H92C        -2.4910     2.3190    -0.0170 h1         1 II6       0.015200
     28 H101         3.8190     0.9010    -1.2710 hn         1 II6       0.391000
     29 H102         4.5830     1.3920     0.0630 hn         1 II6       0.391000
     30 H11         -4.5260     1.2380     0.0270 ho         1 II6       0.441000
@<TRIPOS>BOND
     1     1     4 1   
     2     1     5 1   
     3     1    12 1   
     4     1    13 1   
     5     2     4 1   
     6     2     6 1   
     7     2    16 1   
     8     2    17 1   
     9     3     5 1   
    10     3     6 1   
    11     3    19 1   
    12     3    20 1   
    13     4     7 1   
    14     4    14 1   
    15     5     8 1   
    16     5    15 1   
    17     6     9 1   
    18     6    18 1   
    19     7    21 1   
    20     7    22 1   
    21     7    23 1   
    22     8    10 1   
    23     8    24 1   
    24     8    25 1   
    25     9    11 1   
    26     9    26 1   
    27     9    27 1   
    28    10    28 1   
    29    10    29 1   
    30    11    30 1   
@<TRIPOS>SUBSTRUCTURE
     1 II6         1 TEMP              0 ****  ****    0 ROOT
