@<TRIPOS>MOLECULE
II9
   48    51     1     0     0
SMALL
abcg2


@<TRIPOS>ATOM
      1 C10         95.7370   -10.5030    10.6770 ca         1 II9      -0.006000
      2 C11         92.9640   -10.5600    11.2700 ca         1 II9      -0.158000
      3 C15         93.7800   -13.6750     7.5290 ca         1 II9      -0.113900
      4 C19         92.9670    -5.9710    15.6380 ca         1 II9       0.364300
      5 C20         90.9870    -7.8670    15.5810 ca         1 II9      -0.111000
      6 C21         90.9040    -6.8320    16.5030 ca         1 II9      -0.082000
      7 C22         92.5430   -14.2770     7.2970 ca         1 II9      -0.082500
      8 C23         94.8610   -14.0140     6.7130 ca         1 II9      -0.082500
      9 C24         91.9000    -5.8760    16.5350 ca         1 II9      -0.147000
     10 C25         98.3790    -8.5090    13.3580 c3         1 II9       0.095300
     11 C26         94.0630    -4.9520    15.6330 c3         1 II9      -0.149400
     12 C27         92.3920   -15.1960     6.2700 ca         1 II9      -0.113500
     13 C28         94.7070   -14.9320     5.6890 ca         1 II9      -0.113500
     14 N1          92.9750   -12.2320     9.3940 na         1 II9      -0.307600
     15 C2          93.9830   -12.7020     8.6010 cc         1 II9       0.470400
     16 C3          95.2170    -9.7140    11.6930 ca         1 II9      -0.212600
     17 N4          95.1400   -12.1780     8.9120 nd         1 II9      -0.568100
     18 C5          93.8200    -9.7260    11.9800 ca         1 II9       0.045000
     19 C6          93.5220   -11.3440    10.2720 ca         1 II9      -0.034200
     20 C7          94.8860   -11.3270     9.9540 ca         1 II9       0.036400
     21 C8          92.2240    -8.9860    13.7180 c          1 II9       0.517600
     22 N9          93.3500    -8.8770    12.9810 ns         1 II9      -0.137000
     23 C12         96.1430    -8.8090    12.4400 c          1 II9       0.616700
     24 N13         93.0360    -6.9620    14.7630 nb         1 II9      -0.670000
     25 C14         92.0790    -7.8850    14.7320 ca         1 II9       0.289500
     26 O16         91.3860    -9.8650    13.6200 o          1 II9      -0.595100
     27 O17         95.8080    -7.6790    12.7910 o          1 II9      -0.619100
     28 N18         97.3640    -9.2940    12.6950 ns         1 II9      -0.498900
     29 C29         93.4720   -15.5270     5.4620 ca         1 II9      -0.096000
     30 H1          96.7900   -10.4660    10.4250 ha         1 II9       0.129000
     31 H2          91.9050   -10.5860    11.4710 ha         1 II9       0.151000
     32 H3          90.2270    -8.6340    15.5250 ha         1 II9       0.146000
     33 H4          90.0680    -6.7770    17.1880 ha         1 II9       0.123000
     34 H5          91.6830   -14.0450     7.9120 ha         1 II9       0.122000
     35 H6          95.8250   -13.5530     6.8850 ha         1 II9       0.122000
     36 H7          91.8610    -5.0590    17.2440 ha         1 II9       0.124000
     37 H8          99.2780    -9.1130    13.4380 h1         1 II9       0.041367
     38 H9          98.6200    -7.6080    12.7940 h1         1 II9       0.041367
     39 H10         98.0700    -8.2140    14.3610 h1         1 II9       0.041367
     40 H11         94.8440    -5.2290    14.9290 hc         1 II9       0.056367
     41 H12         93.6780    -3.9700    15.3510 hc         1 II9       0.056367
     42 H13         94.5080    -4.8480    16.6230 hc         1 II9       0.056367
     43 H14         91.4270   -15.6560     6.1030 ha         1 II9       0.117000
     44 H15         95.5530   -15.1840     5.0640 ha         1 II9       0.117000
     45 H16         91.9970   -12.4730     9.3400 hn         1 II9       0.362000
     46 H18         93.9540    -8.0930    13.2180 hn         1 II9       0.220000
     47 H19         97.5650   -10.2590    12.4950 hn         1 II9       0.322500
     48 H20         93.3510   -16.2450     4.6620 ha         1 II9       0.116000
@<TRIPOS>BOND
     1     1    16 ar  
     2     1    20 ar  
     3     1    30 1   
     4     2    18 ar  
     5     2    19 ar  
     6     2    31 1   
     7     3     7 ar  
     8     3     8 ar  
     9     3    15 1   
    10     4     9 ar  
    11     4    11 1   
    12     4    24 ar  
    13     5     6 ar  
    14     5    25 ar  
    15     5    32 1   
    16     6     9 ar  
    17     6    33 1   
    18     7    12 ar  
    19     7    34 1   
    20     8    13 ar  
    21     8    35 1   
    22     9    36 1   
    23    10    28 1   
    24    10    37 1   
    25    10    38 1   
    26    10    39 1   
    27    11    40 1   
    28    11    41 1   
    29    11    42 1   
    30    12    29 ar  
    31    12    43 1   
    32    13    29 ar  
    33    13    44 1   
    34    14    15 1   
    35    14    19 1   
    36    14    45 1   
    37    15    17 2   
    38    16    18 ar  
    39    16    23 1   
    40    17    20 1   
    41    18    22 1   
    42    19    20 ar  
    43    21    22 1   
    44    21    25 1   
    45    21    26 2   
    46    22    46 1   
    47    23    27 2   
    48    23    28 1   
    49    24    25 ar  
    50    28    47 1   
    51    29    48 1   
@<TRIPOS>SUBSTRUCTURE
     1 II9         1 TEMP              0 ****  ****    0 ROOT
