@<TRIPOS>MOLECULE
II9
   48    51     1     0     0
SMALL
No Charge or Current Charge


@<TRIPOS>ATOM
      1 C10         95.8040   -10.5730    10.7080 ca         1 II9      -0.006000
      2 C11         93.0300   -10.5800    11.2560 ca         1 II9      -0.158000
      3 C15         93.7950   -13.7320     7.4990 ca         1 II9      -0.113900
      4 C19         92.8380    -5.9040    15.8200 ca         1 II9       0.364300
      5 C20         90.8110    -7.7480    15.5580 ca         1 II9      -0.111000
      6 C21         90.6550    -6.7090    16.4910 ca         1 II9      -0.082000
      7 C22         92.4990   -14.2160     7.2020 ca         1 II9      -0.082500
      8 C23         94.8840   -14.2100     6.7330 ca         1 II9      -0.082500
      9 C24         91.6910    -5.7720    16.6210 ca         1 II9      -0.147000
     10 C25         98.6680    -8.4370    13.1040 c3         1 II9       0.095300
     11 C26         93.9810    -4.9140    15.9180 c3         1 II9      -0.149400
     12 C27         92.3010   -15.1490     6.1700 ca         1 II9      -0.113500
     13 C28         94.6830   -15.1440     5.7020 ca         1 II9      -0.113500
     14 N1          93.0060   -12.2290     9.3800 na         1 II9      -0.307600
     15 C2          94.0170   -12.7540     8.5780 cc         1 II9       0.470400
     16 C3          95.2960    -9.7430    11.7510 ca         1 II9      -0.212600
     17 N4          95.2170   -12.2410     8.9270 nd         1 II9      -0.568100
     18 C5          93.8870    -9.7570    12.0310 ca         1 II9       0.045000
     19 C6          93.5930   -11.3680    10.2530 ca         1 II9      -0.034200
     20 C7          94.9220   -11.3770     9.9790 ca         1 II9       0.036400
     21 C8          92.1540    -8.9570    13.7630 c          1 II9       0.517600
     22 N9          93.3620    -8.9420    13.0740 ns         1 II9      -0.137000
     23 C12         96.2580    -8.8610    12.5300 c          1 II9       0.616700
     24 N13         92.9880    -6.9010    14.9190 nb         1 II9      -0.670000
     25 C14         91.9890    -7.8240    14.7810 ca         1 II9       0.289500
     26 O16         91.2880    -9.8140    13.5880 o          1 II9      -0.595100
     27 O17         95.8960    -7.8920    13.1810 o          1 II9      -0.619100
     28 N18         97.5940    -9.1830    12.4440 ns         1 II9      -0.498900
     29 C29         93.3910   -15.6140     5.4190 ca         1 II9      -0.096000
     30 H1          96.8560   -10.5880    10.4390 ha         1 II9       0.129000
     31 H2          91.9560   -10.6050    11.4080 ha         1 II9       0.151000
     32 H3          90.0240    -8.4880    15.4370 ha         1 II9       0.146000
     33 H4          89.7550    -6.6340    17.0980 ha         1 II9       0.123000
     34 H5          91.6330   -13.8750     7.7660 ha         1 II9       0.122000
     35 H6          95.8940   -13.8600     6.9340 ha         1 II9       0.122000
     36 H7          91.6090    -4.9530    17.3300 ha         1 II9       0.124000
     37 H8          99.6340    -8.9040    12.8750 h1         1 II9       0.041367
     38 H9          98.6740    -7.4000    12.7430 h1         1 II9       0.041367
     39 H10         98.5110    -8.4450    14.1900 h1         1 II9       0.041367
     40 H11         94.9400    -5.3800    15.6610 hc         1 II9       0.056367
     41 H12         93.8220    -4.0720    15.2360 hc         1 II9       0.056367
     42 H13         94.0700    -4.5130    16.9340 hc         1 II9       0.056367
     43 H14         91.2990   -15.5130     5.9520 ha         1 II9       0.117000
     44 H15         95.5300   -15.5020     5.1210 ha         1 II9       0.117000
     45 H16         92.0230   -12.4530     9.3180 hn         1 II9       0.362000
     46 H18         93.9910    -8.2030    13.3750 hn         1 II9       0.220000
     47 H19         97.8360   -10.0110    11.9150 hn         1 II9       0.322500
     48 H20         93.2360   -16.3370     4.6200 ha         1 II9       0.116000
@<TRIPOS>BOND
     1     1    16 ar  
     2     1    20 ar  
     3     1    30 1   
     4     2    18 ar  
     5     2    19 ar  
     6     2    31 1   
     7     3     7 ar  
     8     3     8 ar  
     9     3    15 1   
    10     4     9 ar  
    11     4    11 1   
    12     4    24 ar  
    13     5     6 ar  
    14     5    25 ar  
    15     5    32 1   
    16     6     9 ar  
    17     6    33 1   
    18     7    12 ar  
    19     7    34 1   
    20     8    13 ar  
    21     8    35 1   
    22     9    36 1   
    23    10    28 1   
    24    10    37 1   
    25    10    38 1   
    26    10    39 1   
    27    11    40 1   
    28    11    41 1   
    29    11    42 1   
    30    12    29 ar  
    31    12    43 1   
    32    13    29 ar  
    33    13    44 1   
    34    14    15 1   
    35    14    19 1   
    36    14    45 1   
    37    15    17 2   
    38    16    18 ar  
    39    16    23 1   
    40    17    20 1   
    41    18    22 1   
    42    19    20 ar  
    43    21    22 1   
    44    21    25 1   
    45    21    26 2   
    46    22    46 1   
    47    23    27 2   
    48    23    28 1   
    49    24    25 ar  
    50    28    47 1   
    51    29    48 1   
@<TRIPOS>SUBSTRUCTURE
     1 II9         1 TEMP              0 ****  ****    0 ROOT
