@<TRIPOS>MOLECULE
IIA
   60    64     1     0     0
SMALL
abcg2


@<TRIPOS>ATOM
      1 C1          -0.6870    -6.4100     0.0420 ca         1 IIA      -0.085000
      2 C2          -0.8420    -5.1430    -0.4820 ca         1 IIA      -0.124000
      3 C3           0.0830    -4.1710    -0.0960 ca         1 IIA      -0.024200
      4 C4           1.1380    -4.4600     0.7950 ca         1 IIA      -0.106800
      5 C5           1.2690    -5.7550     1.3130 ca         1 IIA      -0.055000
      6 C6           0.3580    -6.7170     0.9330 ca         1 IIA      -0.141000
      7 N7           0.1770    -2.8550    -0.4550 na         1 IIA      -0.056700
      8 C8           1.2560    -2.2990     0.1960 cc         1 IIA      -0.129300
      9 C9           1.8690    -3.2530     0.9630 cd         1 IIA      -0.197200
     10 C10          1.5760    -0.8570     0.0990 c          1 IIA       0.631300
     11 N11          2.8540    -0.5460     0.3660 ns         1 IIA      -0.492900
     12 C12          3.3480     0.8150     0.4040 c6         1 IIA       0.110700
     13 C13          3.8240     1.3050    -0.9560 c6         1 IIA      -0.092900
     14 C14          4.3880     2.7150    -0.8580 c6         1 IIA       0.167300
     15 N15          5.4810     2.8040     0.1000 n3         1 IIA      -0.719600
     16 C16          5.0250     2.3680     1.4120 c6         1 IIA       0.167300
     17 C17          4.4900     0.9440     1.3980 c6         1 IIA      -0.092900
     18 C27          6.0720     4.1470     0.1400 c3         1 IIA       0.186500
     19 C28          7.2280     4.2200     1.1360 c3         1 IIA      -0.091600
     20 C32          6.5830     4.5760    -1.2330 c3         1 IIA      -0.091600
     21 C37         -0.7180    -2.2020    -1.3750 c3         1 IIA       0.051300
     22 C38         -1.8460    -1.4900    -0.7020 cc         1 IIA       0.264300
     23 N41         -2.1810    -1.7430     0.5270 nd         1 IIA      -0.332300
     24 O42         -3.2550    -0.9460     0.8000 os         1 IIA      -0.065700
     25 C43         -3.5600    -0.2180    -0.2790 cd         1 IIA       0.267500
     26 C44         -2.6970    -0.5200    -1.2820 cc         1 IIA      -0.232000
     27 C45         -4.6700     0.6930    -0.1710 cd         1 IIA      -0.282500
     28 S46         -5.1160     1.6820    -1.5130 ss         1 IIA       0.276000
     29 C47         -6.3940     2.3840    -0.6050 cd         1 IIA      -0.026000
     30 C48         -6.4780     1.8900     0.6590 cc         1 IIA      -0.126000
     31 C49         -5.4830     0.9150     0.9070 cc         1 IIA      -0.079000
     32 CL50        -7.3920     3.5690    -1.3130 cl         1 IIA      -0.134000
     33 O56          0.7170    -0.0260    -0.1670 o          1 IIA      -0.607100
     34 H1          -1.3890    -7.1850    -0.2360 ha         1 IIA       0.111000
     35 H2          -1.6570    -4.9250    -1.1600 ha         1 IIA       0.116000
     36 H5           2.0740    -5.9940     1.9980 ha         1 IIA       0.114000
     37 H6           0.4420    -7.7230     1.3230 ha         1 IIA       0.112000
     38 H9           2.7330    -3.1020     1.5950 ha         1 IIA       0.204000
     39 H11          3.5340    -1.2890     0.4180 hn         1 IIA       0.318500
     40 H12          2.5250     1.4530     0.7380 h1         1 IIA       0.077700
     41 H131         4.5980     0.6300    -1.3350 hc         1 IIA       0.052450
     42 H132         3.0020     1.2960    -1.6750 hc         1 IIA       0.052450
     43 H141         3.5740     3.4180    -0.6040 h1         1 IIA       0.034450
     44 H142         4.7430     2.9980    -1.8480 h1         1 IIA       0.034450
     45 H161         5.8530     2.4070     2.1170 h1         1 IIA       0.034450
     46 H162         4.2410     3.0400     1.8070 h1         1 IIA       0.034450
     47 H171         5.2980     0.2550     1.1300 hc         1 IIA       0.052450
     48 H172         4.1560     0.6800     2.4030 hc         1 IIA       0.052450
     49 H27          5.3070     4.8800     0.4560 h1         1 IIA       0.018700
     50 H281         7.7520     5.1700     1.0260 hc         1 IIA       0.038033
     51 H282         6.9060     4.1580     2.1750 hc         1 IIA       0.038033
     52 H283         7.9470     3.4180     0.9540 hc         1 IIA       0.038033
     53 H321         7.2690     3.8310    -1.6430 hc         1 IIA       0.038033
     54 H322         5.7870     4.7400    -1.9580 hc         1 IIA       0.038033
     55 H323         7.1250     5.5180    -1.1460 hc         1 IIA       0.038033
     56 H371        -0.1730    -1.5060    -2.0090 h1         1 IIA       0.077200
     57 H372        -1.1310    -2.9560    -2.0470 h1         1 IIA       0.077200
     58 H44         -2.6540    -0.1180    -2.2810 ha         1 IIA       0.154000
     59 H48         -7.2140     2.2070     1.3830 ha         1 IIA       0.151000
     60 H49         -5.3800     0.4020     1.8520 ha         1 IIA       0.153000
@<TRIPOS>BOND
     1     1     2 ar  
     2     1     6 ar  
     3     1    34 1   
     4     2     3 ar  
     5     2    35 1   
     6     3     4 ar  
     7     3     7 1   
     8     4     5 ar  
     9     4     9 1   
    10     5     6 ar  
    11     5    36 1   
    12     6    37 1   
    13     7     8 1   
    14     7    21 1   
    15     8     9 2   
    16     8    10 1   
    17     9    38 1   
    18    10    11 1   
    19    10    33 2   
    20    11    12 1   
    21    11    39 1   
    22    12    13 1   
    23    12    17 1   
    24    12    40 1   
    25    13    14 1   
    26    13    41 1   
    27    13    42 1   
    28    14    15 1   
    29    14    43 1   
    30    14    44 1   
    31    15    16 1   
    32    15    18 1   
    33    16    17 1   
    34    16    45 1   
    35    16    46 1   
    36    17    47 1   
    37    17    48 1   
    38    18    19 1   
    39    18    20 1   
    40    18    49 1   
    41    19    50 1   
    42    19    51 1   
    43    19    52 1   
    44    20    53 1   
    45    20    54 1   
    46    20    55 1   
    47    21    22 1   
    48    21    56 1   
    49    21    57 1   
    50    22    23 2   
    51    22    26 1   
    52    23    24 1   
    53    24    25 1   
    54    25    26 2   
    55    25    27 1   
    56    26    58 1   
    57    27    28 1   
    58    27    31 2   
    59    28    29 1   
    60    29    30 2   
    61    29    32 1   
    62    30    31 1   
    63    30    59 1   
    64    31    60 1   
@<TRIPOS>SUBSTRUCTURE
     1 IIA         1 TEMP              0 ****  ****    0 ROOT
