@<TRIPOS>MOLECULE
IIA
   60    64     1     0     0
SMALL
No Charge or Current Charge


@<TRIPOS>ATOM
      1 C1          -0.7910    -6.2890     0.5170 ca         1 IIA      -0.085000
      2 C2          -0.9360    -5.1660    -0.3280 ca         1 IIA      -0.124000
      3 C3          -0.0710    -4.0760    -0.1300 ca         1 IIA      -0.024200
      4 C4           0.8770    -4.0990     0.8530 ca         1 IIA      -0.106800
      5 C5           1.0520    -5.1930     1.7090 ca         1 IIA      -0.055000
      6 C6           0.1990    -6.3030     1.5300 ca         1 IIA      -0.141000
      7 N7           0.0070    -2.8590    -0.8030 na         1 IIA      -0.056700
      8 C8           1.0250    -2.0440    -0.2460 cc         1 IIA      -0.129300
      9 C9           1.5580    -2.8340     0.7760 cd         1 IIA      -0.197200
     10 C10          1.4630    -0.6650    -0.6090 c          1 IIA       0.631300
     11 N11          2.4960    -0.1740     0.1580 ns         1 IIA      -0.492900
     12 C12          3.1230     1.1440     0.0030 c6         1 IIA       0.110700
     13 C13          4.1820     1.1230    -1.1190 c6         1 IIA      -0.092900
     14 C14          4.8880     2.4920    -1.2410 c6         1 IIA       0.167300
     15 N15          5.5350     2.9160     0.0420 n3         1 IIA      -0.719600
     16 C16          4.5260     2.9320     1.1490 c6         1 IIA       0.167300
     17 C17          3.8150     1.5690     1.3140 c6         1 IIA      -0.092900
     18 C27          6.3100     4.1970    -0.0770 c3         1 IIA       0.186500
     19 C28          7.0040     4.6170     1.2460 c3         1 IIA      -0.091600
     20 C32          7.3750     4.1660    -1.2050 c3         1 IIA      -0.091600
     21 C37         -0.9030    -2.5380    -1.9190 c3         1 IIA       0.051300
     22 C38         -2.2510    -2.0480    -1.4620 cc         1 IIA       0.264300
     23 N41         -3.3930    -2.6550    -1.7570 nd         1 IIA      -0.332300
     24 O42         -4.3960    -1.8400    -1.1100 os         1 IIA      -0.065700
     25 C43         -3.7480    -0.8100    -0.4840 cd         1 IIA       0.267500
     26 C44         -2.4130    -0.8930    -0.6750 cc         1 IIA      -0.232000
     27 C45         -4.4010     0.2170     0.2730 cd         1 IIA      -0.282500
     28 S46         -3.5850     1.5600     1.0950 ss         1 IIA       0.276000
     29 C47         -5.1660     2.1480     1.6520 cd         1 IIA      -0.026000
     30 C48         -6.1940     1.3490     1.2180 cc         1 IIA      -0.126000
     31 C49         -5.7640     0.2480     0.4330 cc         1 IIA      -0.079000
     32 Cl50        -5.3450     3.5700     2.6280 cl         1 IIA      -0.134000
     33 O56          0.9590    -0.0000    -1.5030 o          1 IIA      -0.607100
     34 H1          -1.4450    -7.1490     0.3890 ha         1 IIA       0.111000
     35 H2          -1.6980    -5.1560    -1.1030 ha         1 IIA       0.116000
     36 H5           1.8150    -5.1870     2.4850 ha         1 IIA       0.114000
     37 H6           0.3020    -7.1730     2.1740 ha         1 IIA       0.112000
     38 H9           2.3690    -2.5470     1.4410 ha         1 IIA       0.204000
     39 H11          2.8530    -0.7900     0.8740 hn         1 IIA       0.318500
     40 H12          2.3440     1.8810    -0.2460 h1         1 IIA       0.077700
     41 H131         4.9280     0.3420    -0.9210 hc         1 IIA       0.052450
     42 H132         3.7090     0.8700    -2.0770 hc         1 IIA       0.052450
     43 H141         4.1560     3.2480    -1.5650 h1         1 IIA       0.034450
     44 H142         5.6300     2.3950    -2.0450 h1         1 IIA       0.034450
     45 H161         5.0000     3.1610     2.1130 h1         1 IIA       0.034450
     46 H162         3.7720     3.7120     0.9640 h1         1 IIA       0.034450
     47 H171         4.5480     0.8110     1.6200 hc         1 IIA       0.052450
     48 H172         3.0750     1.6380     2.1220 hc         1 IIA       0.052450
     49 H27          5.6090     5.0040    -0.3310 h1         1 IIA       0.018700
     50 H281         7.6510     5.4880     1.0880 hc         1 IIA       0.038033
     51 H282         6.2740     4.9040     2.0110 hc         1 IIA       0.038033
     52 H283         7.6220     3.8000     1.6380 hc         1 IIA       0.038033
     53 H321         8.0350     3.2980    -1.0930 hc         1 IIA       0.038033
     54 H322         6.9110     4.1310    -2.1960 hc         1 IIA       0.038033
     55 H323         7.9940     5.0710    -1.1820 hc         1 IIA       0.038033
     56 H371        -0.4450    -1.7750    -2.5570 h1         1 IIA       0.077200
     57 H372        -1.0330    -3.4320    -2.5400 h1         1 IIA       0.077200
     58 H44         -1.6320    -0.2370    -0.3130 ha         1 IIA       0.154000
     59 H48         -7.2400     1.5290     1.4450 ha         1 IIA       0.151000
     60 H49         -6.4600    -0.4770     0.0150 ha         1 IIA       0.153000
@<TRIPOS>BOND
     1     1     2 ar  
     2     1     6 ar  
     3     1    34 1   
     4     2     3 ar  
     5     2    35 1   
     6     3     4 ar  
     7     3     7 1   
     8     4     5 ar  
     9     4     9 1   
    10     5     6 ar  
    11     5    36 1   
    12     6    37 1   
    13     7     8 1   
    14     7    21 1   
    15     8     9 2   
    16     8    10 1   
    17     9    38 1   
    18    10    11 1   
    19    10    33 2   
    20    11    12 1   
    21    11    39 1   
    22    12    13 1   
    23    12    17 1   
    24    12    40 1   
    25    13    14 1   
    26    13    41 1   
    27    13    42 1   
    28    14    15 1   
    29    14    43 1   
    30    14    44 1   
    31    15    16 1   
    32    15    18 1   
    33    16    17 1   
    34    16    45 1   
    35    16    46 1   
    36    17    47 1   
    37    17    48 1   
    38    18    19 1   
    39    18    20 1   
    40    18    49 1   
    41    19    50 1   
    42    19    51 1   
    43    19    52 1   
    44    20    53 1   
    45    20    54 1   
    46    20    55 1   
    47    21    22 1   
    48    21    56 1   
    49    21    57 1   
    50    22    23 2   
    51    22    26 1   
    52    23    24 1   
    53    24    25 1   
    54    25    26 2   
    55    25    27 1   
    56    26    58 1   
    57    27    28 1   
    58    27    31 2   
    59    28    29 1   
    60    29    30 2   
    61    29    32 1   
    62    30    31 1   
    63    30    59 1   
    64    31    60 1   
@<TRIPOS>SUBSTRUCTURE
     1 IIA         1 TEMP              0 ****  ****    0 ROOT
