@<TRIPOS>MOLECULE
IIB
   64    68     1     0     0
SMALL
bcc


@<TRIPOS>ATOM
      1 C1          -3.1500    -5.0670     0.8700 ca         1 IIB      -0.112000
      2 C2          -2.1550    -4.1710     1.2280 ca         1 IIB      -0.074300
      3 C3          -2.2890    -2.8740     0.6980 ca         1 IIB      -0.023200
      4 C4          -3.3760    -2.5290    -0.1280 ca         1 IIB      -0.067800
      5 C5          -4.3600    -3.4610    -0.4630 ca         1 IIB      -0.081000
      6 C6          -4.2330    -4.7320     0.0450 ca         1 IIB      -0.140000
      7 N7          -1.5010    -1.7440     0.8350 na         1 IIB      -0.015400
      8 C8          -2.0440    -0.7230     0.1250 cc         1 IIB      -0.076300
      9 C9          -3.2030    -1.1560    -0.4790 cd         1 IIB      -0.034900
     10 C10         -1.3800     0.6020    -0.0350 c          1 IIB       0.691300
     11 N11         -2.2190     1.6390     0.0370 ns         1 IIB      -0.553900
     12 C12         -1.8350     3.0140    -0.2230 c6         1 IIB       0.111700
     13 C13         -1.2620     3.7050     1.0080 c6         1 IIB      -0.093400
     14 C14         -0.9760     5.1730     0.7220 c6         1 IIB       0.172800
     15 N15         -2.1820     5.8600     0.2910 n3         1 IIB      -0.731600
     16 C16         -2.6760     5.2530    -0.9350 c6         1 IIB       0.172800
     17 C17         -3.0380     3.7910    -0.7340 c6         1 IIB      -0.093400
     18 C27         -2.0630     7.3160     0.1470 c3         1 IIB       0.191500
     19 C28         -3.4490     7.9580     0.2040 c3         1 IIB      -0.091600
     20 C32         -1.1890     7.9570     1.2200 c3         1 IIB      -0.091600
     21 C37         -0.2680    -1.6350     1.5840 c3         1 IIB       0.014000
     22 C38          0.9290    -2.0410     0.7910 cc         1 IIB       0.320600
     23 N41          0.8180    -2.6110    -0.3710 nd         1 IIB      -0.326300
     24 O42          2.0890    -2.8730    -0.7880 os         1 IIB      -0.104100
     25 C43          2.9600    -2.4590     0.1370 cd         1 IIB       0.383200
     26 C44          2.2830    -1.9150     1.1810 cc         1 IIB      -0.387600
     27 C45          4.3590    -2.6590    -0.1350 cd         1 IIB      -0.142600
     28 S46          5.5510    -2.1180     0.9920 ss         1 IIB      -0.013800
     29 C47          6.8090    -2.7070    -0.0170 cd         1 IIB       0.029300
     30 C48          6.3470    -3.2880    -1.1570 cc         1 IIB      -0.144000
     31 C49          4.9340    -3.2580    -1.2220 cc         1 IIB      -0.092000
     32 CL50         8.4350    -2.5310     0.4600 cl         1 IIB      -0.039400
     33 O56         -0.1830     0.6820    -0.2630 o          1 IIB      -0.588100
     34 C7          -4.0400    -0.4130    -1.3340 ch         1 IIB       0.231500
     35 N1          -4.7500     0.1640    -2.0380 n1         1 IIB      -0.379800
     36 C11         -1.0420    -4.6310     2.1230 c3         1 IIB      -0.045800
     37 H1          -3.0850    -6.0790     1.2510 ha         1 IIB       0.129000
     38 H5          -5.1910    -3.1880    -1.1000 ha         1 IIB       0.144000
     39 H6          -4.9700    -5.4880    -0.1910 ha         1 IIB       0.135000
     40 H11         -3.1560     1.4790     0.3760 hn         1 IIB       0.325500
     41 H12         -1.0700     2.9990    -1.0060 h1         1 IIB       0.075700
     42 H131        -1.9780     3.6310     1.8320 hc         1 IIB       0.055200
     43 H132        -0.3420     3.2090     1.3250 hc         1 IIB       0.055200
     44 H141        -0.1680     5.2490    -0.0290 h1         1 IIB       0.034700
     45 H142        -0.6000     5.6250     1.6380 h1         1 IIB       0.034700
     46 H161        -3.5620     5.7860    -1.2790 h1         1 IIB       0.034700
     47 H162        -1.9280     5.3360    -1.7450 h1         1 IIB       0.034700
     48 H171        -3.8590     3.7200    -0.0130 hc         1 IIB       0.055200
     49 H172        -3.3900     3.3670    -1.6770 hc         1 IIB       0.055200
     50 H27         -1.6100     7.5590    -0.8310 h1         1 IIB       0.020700
     51 H281        -3.3780     9.0290     0.0150 hc         1 IIB       0.037700
     52 H282        -4.1410     7.5480    -0.5300 hc         1 IIB       0.037700
     53 H283        -3.8880     7.8150     1.1930 hc         1 IIB       0.037700
     54 H321        -1.2530     9.0410     1.1340 hc         1 IIB       0.037700
     55 H322        -1.5270     7.6840     2.2220 hc         1 IIB       0.037700
     56 H323        -0.1370     7.6890     1.1300 hc         1 IIB       0.037700
     57 H371        -0.1440    -0.6150     1.9410 h1         1 IIB       0.081700
     58 H372        -0.3370    -2.2480     2.4790 h1         1 IIB       0.081700
     59 H44          2.6710    -1.4870     2.0900 ha         1 IIB       0.173000
     60 H48          6.9830    -3.7170    -1.9150 ha         1 IIB       0.170000
     61 H49          4.3720    -3.6710    -2.0470 ha         1 IIB       0.172000
     62 H111        -1.0640    -4.1360     3.0950 hc         1 IIB       0.043700
     63 H112        -1.1360    -5.6990     2.3090 hc         1 IIB       0.043700
     64 H113        -0.0570    -4.4660     1.6840 hc         1 IIB       0.043700
@<TRIPOS>BOND
     1     1     2 ar  
     2     1     6 ar  
     3     1    37 1   
     4     2     3 ar  
     5     2    36 1   
     6     3     4 ar  
     7     3     7 1   
     8     4     5 ar  
     9     4     9 1   
    10     5     6 ar  
    11     5    38 1   
    12     6    39 1   
    13     7     8 1   
    14     7    21 1   
    15     8     9 2   
    16     8    10 1   
    17     9    34 1   
    18    10    11 1   
    19    10    33 2   
    20    11    12 1   
    21    11    40 1   
    22    12    13 1   
    23    12    17 1   
    24    12    41 1   
    25    13    14 1   
    26    13    42 1   
    27    13    43 1   
    28    14    15 1   
    29    14    44 1   
    30    14    45 1   
    31    15    16 1   
    32    15    18 1   
    33    16    17 1   
    34    16    46 1   
    35    16    47 1   
    36    17    48 1   
    37    17    49 1   
    38    18    19 1   
    39    18    20 1   
    40    18    50 1   
    41    19    51 1   
    42    19    52 1   
    43    19    53 1   
    44    20    54 1   
    45    20    55 1   
    46    20    56 1   
    47    21    22 1   
    48    21    57 1   
    49    21    58 1   
    50    22    23 2   
    51    22    26 1   
    52    23    24 1   
    53    24    25 1   
    54    25    26 2   
    55    25    27 1   
    56    26    59 1   
    57    27    28 1   
    58    27    31 2   
    59    28    29 1   
    60    29    30 2   
    61    29    32 1   
    62    30    31 1   
    63    30    60 1   
    64    31    61 1   
    65    34    35 3   
    66    36    62 1   
    67    36    63 1   
    68    36    64 1   
@<TRIPOS>SUBSTRUCTURE
     1 IIB         1 TEMP              0 ****  ****    0 ROOT
