@<TRIPOS>MOLECULE
IIB
   64    68     1     0     0
SMALL
No Charge or Current Charge


@<TRIPOS>ATOM
      1 C1          -2.9900    -5.1430     0.9270 ca         1 IIB      -0.094000
      2 C2          -1.8780    -4.2830     1.0970 ca         1 IIB      -0.074300
      3 C3          -2.0880    -2.8890     0.8920 ca         1 IIB      -0.023200
      4 C4          -3.3190    -2.4290     0.4980 ca         1 IIB      -0.067800
      5 C5          -4.4270    -3.2690     0.3210 ca         1 IIB      -0.063000
      6 C6          -4.2530    -4.6440     0.5490 ca         1 IIB      -0.122000
      7 N7          -1.2380    -1.7750     0.9820 na         1 IIB      -0.044700
      8 C8          -1.9030    -0.5850     0.5750 cc         1 IIB      -0.076300
      9 C9          -3.2160    -1.0030     0.2950 cd         1 IIB      -0.034900
     10 C10         -1.3270     0.8040     0.4740 c          1 IIB       0.624300
     11 N11         -2.1760     1.8130     0.0670 ns         1 IIB      -0.486900
     12 C12         -1.8160     3.2290    -0.0770 c6         1 IIB       0.111700
     13 C13         -1.8690     3.9510     1.2850 c6         1 IIB      -0.093400
     14 C14         -1.5570     5.4570     1.1270 c6         1 IIB       0.172800
     15 N15         -2.4920     6.1340     0.1710 n3         1 IIB      -0.731600
     16 C16         -2.4650     5.4400    -1.1560 c6         1 IIB       0.172800
     17 C17         -2.7940     3.9340    -1.0370 c6         1 IIB      -0.093400
     18 C27         -2.2730     7.6160     0.0740 c3         1 IIB       0.191500
     19 C28         -3.2630     8.3180    -0.8930 c3         1 IIB      -0.091600
     20 C32         -2.3320     8.3350     1.4470 c3         1 IIB      -0.091600
     21 C37          0.1220    -1.8420     1.5650 c3         1 IIB       0.043300
     22 C38          1.2280    -2.0990     0.5710 cc         1 IIB       0.255300
     23 N41          1.1380    -1.8740    -0.7350 nd         1 IIB      -0.326300
     24 O42          2.4270    -2.2760    -1.2470 os         1 IIB      -0.059700
     25 C43          3.1740    -2.7090    -0.1870 cd         1 IIB       0.273500
     26 C44          2.4750    -2.6170     0.9660 cc         1 IIB      -0.239000
     27 C45          4.5180    -3.1960    -0.2910 cd         1 IIB      -0.287500
     28 S46          5.5100    -3.7660     1.0650 ss         1 IIB       0.276000
     29 C47          6.8330    -4.0950    -0.0730 cd         1 IIB      -0.024000
     30 C48          6.4930    -3.7790    -1.3630 cc         1 IIB      -0.126000
     31 C49          5.1760    -3.2660    -1.4940 cc         1 IIB      -0.074000
     32 Cl50         8.3620    -4.7420     0.4310 cl         1 IIB      -0.131000
     33 O56         -0.1600     1.0620     0.7300 o          1 IIB      -0.588100
     34 C7          -4.2990    -0.1890    -0.1420 ch         1 IIB       0.320700
     35 N1          -5.1590     0.5140    -0.4990 n1         1 IIB      -0.469000
     36 C11         -0.5390    -4.9220     1.4570 c3         1 IIB      -0.045800
     37 H1          -2.8760    -6.2140     1.0800 ha         1 IIB       0.111000
     38 H5          -5.3920    -2.8760     0.0100 ha         1 IIB       0.126000
     39 H6          -5.0910    -5.3250     0.4210 ha         1 IIB       0.117000
     40 H11         -3.1320     1.5540    -0.1350 hn         1 IIB       0.325500
     41 H12         -0.7970     3.2980    -0.4880 h1         1 IIB       0.075700
     42 H131        -2.8610     3.8290     1.7410 hc         1 IIB       0.055200
     43 H132        -1.1460     3.5010     1.9780 hc         1 IIB       0.055200
     44 H141        -0.5170     5.5760     0.7890 h1         1 IIB       0.034700
     45 H142        -1.6260     5.9010     2.1290 h1         1 IIB       0.034700
     46 H161        -3.2050     5.8720    -1.8430 h1         1 IIB       0.034700
     47 H162        -1.4770     5.5580    -1.6260 h1         1 IIB       0.034700
     48 H171        -3.8270     3.8140    -0.6840 hc         1 IIB       0.055200
     49 H172        -2.7440     3.4690    -2.0310 hc         1 IIB       0.055200
     50 H27         -1.2660     7.7930    -0.3280 h1         1 IIB       0.020700
     51 H281        -3.1480     9.4070    -0.8470 hc         1 IIB       0.037700
     52 H282        -3.0830     8.0290    -1.9340 hc         1 IIB       0.037700
     53 H283        -4.3000     8.0740    -0.6340 hc         1 IIB       0.037700
     54 H321        -2.2850     9.4230     1.3210 hc         1 IIB       0.037700
     55 H322        -3.2630     8.0930     1.9740 hc         1 IIB       0.037700
     56 H323        -1.4850     8.0580     2.0840 hc         1 IIB       0.037700
     57 H371         0.3350    -0.8990     2.0780 h1         1 IIB       0.081700
     58 H372         0.1460    -2.5990     2.3520 h1         1 IIB       0.081700
     59 H44          2.7830    -2.8800     1.9710 ha         1 IIB       0.155000
     60 H48          7.1560    -3.9020    -2.2140 ha         1 IIB       0.152000
     61 H49          4.7580    -2.9690    -2.4530 ha         1 IIB       0.154000
     62 H111        -0.2580    -4.7120     2.4950 hc         1 IIB       0.043700
     63 H112        -0.5780    -6.0140     1.3600 hc         1 IIB       0.043700
     64 H113         0.2610    -4.5850     0.7920 hc         1 IIB       0.043700
@<TRIPOS>BOND
     1     1     2 ar  
     2     1     6 ar  
     3     1    37 1   
     4     2     3 ar  
     5     2    36 1   
     6     3     4 ar  
     7     3     7 1   
     8     4     5 ar  
     9     4     9 1   
    10     5     6 ar  
    11     5    38 1   
    12     6    39 1   
    13     7     8 1   
    14     7    21 1   
    15     8     9 2   
    16     8    10 1   
    17     9    34 1   
    18    10    11 1   
    19    10    33 2   
    20    11    12 1   
    21    11    40 1   
    22    12    13 1   
    23    12    17 1   
    24    12    41 1   
    25    13    14 1   
    26    13    42 1   
    27    13    43 1   
    28    14    15 1   
    29    14    44 1   
    30    14    45 1   
    31    15    16 1   
    32    15    18 1   
    33    16    17 1   
    34    16    46 1   
    35    16    47 1   
    36    17    48 1   
    37    17    49 1   
    38    18    19 1   
    39    18    20 1   
    40    18    50 1   
    41    19    51 1   
    42    19    52 1   
    43    19    53 1   
    44    20    54 1   
    45    20    55 1   
    46    20    56 1   
    47    21    22 1   
    48    21    57 1   
    49    21    58 1   
    50    22    23 2   
    51    22    26 1   
    52    23    24 1   
    53    24    25 1   
    54    25    26 2   
    55    25    27 1   
    56    26    59 1   
    57    27    28 1   
    58    27    31 2   
    59    28    29 1   
    60    29    30 2   
    61    29    32 1   
    62    30    31 1   
    63    30    60 1   
    64    31    61 1   
    65    34    35 3   
    66    36    62 1   
    67    36    63 1   
    68    36    64 1   
@<TRIPOS>SUBSTRUCTURE
     1 IIB         1 TEMP              0 ****  ****    0 ROOT
