@<TRIPOS>MOLECULE
IIC
   34    35     1     0     0
SMALL
abcg2


@<TRIPOS>ATOM
      1 C1           0.8280    -0.6680    -0.3330 c5         1 IIC       0.207900
      2 N2          -0.5130    -0.1450    -0.3310 n2         1 IIC      -0.578900
      3 CA2         -0.5340     0.8880     0.4040 ce         1 IIC       0.343300
      4 C2           0.8240     1.2260     0.9410 c          1 IIC       0.435700
      5 O2           1.1350     2.1910     1.6180 o          1 IIC      -0.549000
      6 N3           1.5950     0.2210     0.5050 n          1 IIC      -0.368800
      7 CA1          0.8440    -2.1230     0.1880 c3         1 IIC       0.177500
      8 N1           0.4030    -2.2790     1.5540 n8         1 IIC      -1.000200
      9 CB1          0.0330    -3.0030    -0.7490 c3         1 IIC       0.168600
     10 OG1          0.3060    -4.3530    -0.4590 oh         1 IIC      -0.648000
     11 CA3          3.0310     0.2350     0.5340 c3         1 IIC      -0.054000
     12 C3           3.6640     0.9810    -0.6670 c          1 IIC       0.710000
     13 O3           2.8900     1.5260    -1.4700 o          1 IIC      -0.720000
     14 CB2         -1.7260     1.7340     0.6930 c3         1 IIC      -0.029400
     15 CG2         -3.0150     1.1580     0.2350 cc         1 IIC      -0.177300
     16 ND1         -3.3260     0.9120    -1.0720 na         1 IIC      -0.278500
     17 CE1         -4.5700     0.3940    -1.1110 cc         1 IIC       0.375400
     18 NE2         -5.0870     0.2950     0.0860 nd         1 IIC      -0.687000
     19 CD2         -4.1240     0.7680     0.9330 cd         1 IIC       0.217900
     20 OXT          4.9080     0.9560    -0.6920 o          1 IIC      -0.720000
     21 H1           1.2170    -0.6500    -1.3570 h2         1 IIC       0.118700
     22 HA1          1.8870    -2.4530     0.1300 h1         1 IIC       0.083700
     23 H11          0.9640    -1.7140     2.1800 hn         1 IIC       0.403000
     24 H12         -0.5560    -1.9690     1.6610 hn         1 IIC       0.403000
     25 HB21        -1.7790     1.9070     1.7710 hc         1 IIC       0.079700
     26 HB11        -1.0330    -2.7700    -0.6300 h1         1 IIC       0.023700
     27 HB12         0.2960    -2.7540    -1.7850 h1         1 IIC       0.023700
     28 HG1         -0.1940    -4.8940    -1.0770 ho         1 IIC       0.428000
     29 HA31         3.3570     0.7060     1.4630 h1         1 IIC       0.046700
     30 HA32         3.3990    -0.7930     0.5660 h1         1 IIC       0.046700
     31 HB2         -1.5520     2.7230     0.2530 hc         1 IIC       0.079700
     32 HD1         -2.7210     1.0530    -1.8650 hn         1 IIC       0.361000
     33 HE1         -5.0460     0.1090    -2.0370 h5         1 IIC       0.045100
     34 HD2         -4.2710     0.8110     2.0020 h4         1 IIC       0.030100
@<TRIPOS>BOND
     1     1     2 1   
     2     1     6 1   
     3     1     7 1   
     4     1    21 1   
     5     2     3 2   
     6     3     4 1   
     7     3    14 1   
     8     4     5 2   
     9     4     6 1   
    10     6    11 1   
    11     7     8 1   
    12     7     9 1   
    13     7    22 1   
    14     8    23 1   
    15     8    24 1   
    16     9    10 1   
    17     9    26 1   
    18     9    27 1   
    19    10    28 1   
    20    11    12 1   
    21    11    29 1   
    22    11    30 1   
    23    12    13 1   
    24    12    20 1   
    25    14    15 1   
    26    14    25 1   
    27    14    31 1   
    28    15    16 1   
    29    15    19 2   
    30    16    17 1   
    31    16    32 1   
    32    17    18 2   
    33    17    33 1   
    34    18    19 1   
    35    19    34 1   
@<TRIPOS>SUBSTRUCTURE
     1 IIC         1 TEMP              0 ****  ****    0 ROOT
