@<TRIPOS>MOLECULE
IIC
   34    35     1     0     0
SMALL
No Charge or Current Charge


@<TRIPOS>ATOM
      1 C1           0.8330    -0.6010    -0.4010 c5         1 IIC       0.207900
      2 N2          -0.6160    -0.1650    -0.2980 n2         1 IIC      -0.578900
      3 CA2         -0.6530     0.8900     0.4730 ce         1 IIC       0.343300
      4 C2           0.6920     1.3150     0.9400 c          1 IIC       0.435700
      5 O2           0.9910     2.2690     1.6530 o          1 IIC      -0.549000
      6 N3           1.5720     0.4070     0.3920 n          1 IIC      -0.368800
      7 CA1          1.0160    -2.0810     0.0920 c3         1 IIC       0.177500
      8 N1           0.5370    -2.2530     1.5050 n8         1 IIC      -1.000200
      9 CB1          0.3590    -3.1030    -0.8920 c3         1 IIC       0.168600
     10 OG1          0.7110    -4.4610    -0.5670 oh         1 IIC      -0.648000
     11 CA3          3.0520     0.5230     0.5500 c3         1 IIC      -0.054000
     12 C3           3.9090    -0.1970    -0.5220 c          1 IIC       0.710000
     13 O3           4.5980    -1.1430    -0.1710 o          1 IIC      -0.720000
     14 CB2         -1.8930     1.6830     0.8650 c3         1 IIC      -0.029400
     15 CG2         -3.1950     1.2200     0.2520 cc         1 IIC      -0.177300
     16 ND1         -3.9620     1.9470    -0.6350 na         1 IIC      -0.278500
     17 CE1         -5.0650     1.1960    -0.9570 cc         1 IIC       0.375400
     18 NE2         -5.0370     0.0350    -0.3190 nd         1 IIC      -0.687000
     19 CD2         -3.8770     0.0420     0.4310 cd         1 IIC       0.217900
     20 OXT          3.8310     0.1880    -1.6800 o          1 IIC      -0.720000
     21 H1           1.1940    -0.5080    -1.4350 h2         1 IIC       0.118700
     22 HA1          2.0950    -2.2890     0.0800 h1         1 IIC       0.083700
     23 H11          0.9970    -1.5450     2.0860 hn         1 IIC       0.403000
     24 H12         -0.4490    -1.9720     1.5300 hn         1 IIC       0.403000
     25 HB21        -1.9930     1.6530     1.9560 hc         1 IIC       0.079700
     26 HB11        -0.7320    -2.9780    -0.8670 h1         1 IIC       0.023700
     27 HB12         0.6910    -2.8700    -1.9130 h1         1 IIC       0.023700
     28 HG1          0.1950    -5.0410    -1.1700 ho         1 IIC       0.428000
     29 HA31         3.3320     1.5840     0.5280 h1         1 IIC       0.046700
     30 HA32         3.3280     0.1270     1.5350 h1         1 IIC       0.046700
     31 HB2         -1.7270     2.7390     0.6200 hc         1 IIC       0.079700
     32 HD1         -3.7660     2.8730    -0.9980 hn         1 IIC       0.361000
     33 HE1         -5.8320     1.5430    -1.6400 h5         1 IIC       0.045100
     34 HD2         -3.6000    -0.7970     1.0590 h4         1 IIC       0.030100
@<TRIPOS>BOND
     1     1     2 1   
     2     1     6 1   
     3     1     7 1   
     4     1    21 1   
     5     2     3 2   
     6     3     4 1   
     7     3    14 1   
     8     4     5 2   
     9     4     6 1   
    10     6    11 1   
    11     7     8 1   
    12     7     9 1   
    13     7    22 1   
    14     8    23 1   
    15     8    24 1   
    16     9    10 1   
    17     9    26 1   
    18     9    27 1   
    19    10    28 1   
    20    11    12 1   
    21    11    29 1   
    22    11    30 1   
    23    12    13 1   
    24    12    20 1   
    25    14    15 1   
    26    14    25 1   
    27    14    31 1   
    28    15    16 1   
    29    15    19 2   
    30    16    17 1   
    31    16    32 1   
    32    17    18 2   
    33    17    33 1   
    34    18    19 1   
    35    19    34 1   
@<TRIPOS>SUBSTRUCTURE
     1 IIC         1 TEMP              0 ****  ****    0 ROOT
