@<TRIPOS>MOLECULE
IID
   61    64     1     0     0
SMALL
bcc


@<TRIPOS>ATOM
      1 C1           4.3600    -3.2900    -0.5020 ca         1 IID      -0.107000
      2 C2           3.7500    -2.1780     0.0410 ca         1 IID      -0.138000
      3 C3           2.4170    -1.9450    -0.3060 ca         1 IID      -0.035200
      4 C4           1.7080    -2.8090    -1.1650 ca         1 IID      -0.110800
      5 C5           2.3540    -3.9290    -1.7040 ca         1 IID      -0.076000
      6 C6           3.6720    -4.1580    -1.3690 ca         1 IID      -0.159000
      7 N7           1.5800    -0.9350     0.0790 na         1 IID      -0.027400
      8 C8           0.3540    -1.1400    -0.5130 cc         1 IID      -0.136300
      9 C9           0.3940    -2.2760    -1.2790 cd         1 IID      -0.157200
     10 C11         -0.7710    -0.1830    -0.3950 c          1 IID       0.696300
     11 N12         -1.9840    -0.7510    -0.4630 ns         1 IID      -0.560900
     12 C13         -3.2250    -0.0030    -0.4490 c6         1 IID       0.111700
     13 C14         -4.2920    -0.7360    -1.2460 c6         1 IID      -0.092900
     14 C17          1.9720     0.0940     1.0170 c3         1 IID       0.094600
     15 C18          2.9260     1.1010     0.4230 ca         1 IID      -0.070300
     16 C21          2.7850     1.5490    -0.8900 ca         1 IID      -0.129000
     17 C22          3.6700     2.4890    -1.3860 ca         1 IID      -0.093000
     18 C23          4.6950     3.0070    -0.6010 ca         1 IID      -0.210000
     19 C24          4.8330     2.5630     0.7110 ca         1 IID       0.137100
     20 C25          3.9470     1.6060     1.2110 ca         1 IID      -0.162000
     21 C26         -5.6150     0.0100    -1.1750 c6         1 IID       0.169800
     22 O1           5.7860     2.9890     1.5620 os         1 IID      -0.321900
     23 O45         -0.5900     1.0240    -0.2870 o          1 IID      -0.606100
     24 C7           6.7180     3.9470     1.1030 c3         1 IID       0.126700
     25 C10         -3.7380     0.2460     0.9640 c6         1 IID      -0.092900
     26 C12         -5.0850     0.9540     0.9390 c6         1 IID       0.169800
     27 N1          -6.0730     0.1900     0.1940 n3         1 IID      -0.723600
     28 C16         -7.4270     0.7560     0.2250 c3         1 IID       0.188500
     29 C19         -8.4520    -0.2870    -0.2180 c3         1 IID      -0.091600
     30 C20         -7.8280     1.2590     1.6080 c3         1 IID      -0.091600
     31 H1           5.3940    -3.4970    -0.2580 ha         1 IID       0.129000
     32 H2           4.2940    -1.5150     0.7010 ha         1 IID       0.141000
     33 H5           1.8270    -4.6010    -2.3690 ha         1 IID       0.131000
     34 H6           4.1890    -5.0170    -1.7770 ha         1 IID       0.129000
     35 H9          -0.4100    -2.6600    -1.8860 ha         1 IID       0.154000
     36 H12         -2.0480    -1.7560    -0.4160 hn         1 IID       0.320500
     37 H13         -3.0350     0.9620    -0.9270 h1         1 IID       0.075700
     38 H141        -3.9880    -0.8360    -2.2900 hc         1 IID       0.052950
     39 H142        -4.4270    -1.7460    -0.8450 hc         1 IID       0.052950
     40 H171         2.4310    -0.3880     1.8840 h1         1 IID       0.073200
     41 H172         1.0800     0.5960     1.3830 h1         1 IID       0.073200
     42 H21          1.9960     1.1620    -1.5210 ha         1 IID       0.150000
     43 H22          3.5660     2.8360    -2.4060 ha         1 IID       0.131000
     44 H23          5.3680     3.7390    -1.0270 ha         1 IID       0.134000
     45 H25          4.0750     1.2570     2.2300 ha         1 IID       0.140000
     46 H261        -5.5090     0.9840    -1.6880 h1         1 IID       0.034200
     47 H262        -6.3540    -0.5550    -1.7420 h1         1 IID       0.034200
     48 H7C1         6.2320     4.8800     0.8060 h1         1 IID       0.039700
     49 H7C2         7.3880     4.1510     1.9350 h1         1 IID       0.039700
     50 H7C3         7.3060     3.5730     0.2610 h1         1 IID       0.039700
     51 H101        -3.8390    -0.7100     1.4870 hc         1 IID       0.052950
     52 H102        -3.0240     0.8520     1.5260 hc         1 IID       0.052950
     53 H121        -4.9500     1.9680     0.5200 h1         1 IID       0.034200
     54 H122        -5.4170     1.0830     1.9680 h1         1 IID       0.034200
     55 H16         -7.4860     1.6140    -0.4680 h1         1 IID       0.019700
     56 H191        -8.4690    -1.1230     0.4840 hc         1 IID       0.037867
     57 H192        -9.4490     0.1550    -0.2380 hc         1 IID       0.037867
     58 H193        -8.2630    -0.6890    -1.2120 hc         1 IID       0.037867
     59 H201        -7.7020     0.4780     2.3620 hc         1 IID       0.037867
     60 H202        -7.2660     2.1360     1.9260 hc         1 IID       0.037867
     61 H203        -8.8810     1.5420     1.5960 hc         1 IID       0.037867
@<TRIPOS>BOND
     1     1     2 ar  
     2     1     6 ar  
     3     1    31 1   
     4     2     3 ar  
     5     2    32 1   
     6     3     4 ar  
     7     3     7 1   
     8     4     5 ar  
     9     4     9 1   
    10     5     6 ar  
    11     5    33 1   
    12     6    34 1   
    13     7     8 1   
    14     7    14 1   
    15     8     9 2   
    16     8    10 1   
    17     9    35 1   
    18    10    11 1   
    19    10    23 2   
    20    11    12 1   
    21    11    36 1   
    22    12    13 1   
    23    12    25 1   
    24    12    37 1   
    25    13    21 1   
    26    13    38 1   
    27    13    39 1   
    28    14    15 1   
    29    14    40 1   
    30    14    41 1   
    31    15    16 ar  
    32    15    20 ar  
    33    16    17 ar  
    34    16    42 1   
    35    17    18 ar  
    36    17    43 1   
    37    18    19 ar  
    38    18    44 1   
    39    19    20 ar  
    40    19    22 1   
    41    20    45 1   
    42    21    27 1   
    43    21    46 1   
    44    21    47 1   
    45    22    24 1   
    46    24    48 1   
    47    24    49 1   
    48    24    50 1   
    49    25    26 1   
    50    25    51 1   
    51    25    52 1   
    52    26    27 1   
    53    26    53 1   
    54    26    54 1   
    55    27    28 1   
    56    28    29 1   
    57    28    30 1   
    58    28    55 1   
    59    29    56 1   
    60    29    57 1   
    61    29    58 1   
    62    30    59 1   
    63    30    60 1   
    64    30    61 1   
@<TRIPOS>SUBSTRUCTURE
     1 IID         1 TEMP              0 ****  ****    0 ROOT
