@<TRIPOS>MOLECULE
IID
   61    64     1     0     0
SMALL
No Charge or Current Charge


@<TRIPOS>ATOM
      1 C1           4.3700    -3.4210    -0.3800 ca         1 IID      -0.089000
      2 C2           3.8580    -2.2510     0.2230 ca         1 IID      -0.120000
      3 C3           2.4930    -1.9660     0.0550 ca         1 IID      -0.035200
      4 C4           1.6850    -2.7910    -0.6750 ca         1 IID      -0.110800
      5 C5           2.1550    -3.9590    -1.2880 ca         1 IID      -0.058000
      6 C6           3.5220    -4.2720    -1.1310 ca         1 IID      -0.141000
      7 N7           1.7350    -0.8980     0.5290 na         1 IID      -0.056700
      8 C8           0.3900    -1.0040     0.0900 cc         1 IID      -0.136300
      9 C9           0.3780    -2.1900    -0.6500 cd         1 IID      -0.207200
     10 C11         -0.7740    -0.1000     0.3200 c          1 IID       0.629300
     11 N12         -1.9460    -0.5240    -0.2660 ns         1 IID      -0.493900
     12 C13         -3.2410     0.1630    -0.1840 c6         1 IID       0.111700
     13 C14         -4.1480    -0.2550    -1.3570 c6         1 IID      -0.092900
     14 C17          2.3440     0.1650     1.3560 c3         1 IID       0.123900
     15 C18          3.1400     1.1970     0.5580 ca         1 IID      -0.070300
     16 C21          2.6390     1.7270    -0.6480 ca         1 IID      -0.111000
     17 C22          3.3820     2.6740    -1.3710 ca         1 IID      -0.075000
     18 C23          4.6320     3.1040    -0.8960 ca         1 IID      -0.192000
     19 C24          5.1420     2.5830     0.3140 ca         1 IID       0.137100
     20 C25          4.3930     1.6370     1.0320 ca         1 IID      -0.144000
     21 C26         -5.5350     0.4210    -1.2540 c6         1 IID       0.169800
     22 O1           6.3620     2.9680     0.8320 os         1 IID      -0.345100
     23 O45         -0.7210     0.9370     0.9650 o          1 IID      -0.606100
     24 C7           7.2060     3.9290     0.1750 c3         1 IID       0.149900
     25 C10         -3.9640    -0.1790     1.1350 c6         1 IID      -0.092900
     26 C12         -5.3550     0.4930     1.1950 c6         1 IID       0.169800
     27 N1          -6.2250     0.1070     0.0380 n3         1 IID      -0.723600
     28 C16         -7.6140     0.6700     0.1240 c3         1 IID       0.188500
     29 C19         -8.5220     0.2440    -1.0600 c3         1 IID      -0.091600
     30 C20         -8.3370     0.3180     1.4510 c3         1 IID      -0.091600
     31 H1           5.4230    -3.6700    -0.2680 ha         1 IID       0.111000
     32 H2           4.5100    -1.5950     0.7950 ha         1 IID       0.123000
     33 H5           1.4920    -4.6000    -1.8640 ha         1 IID       0.113000
     34 H6           3.9270    -5.1700    -1.5910 ha         1 IID       0.111000
     35 H9          -0.4870    -2.6130    -1.1540 ha         1 IID       0.204000
     36 H12         -1.9000    -1.3920    -0.7800 hn         1 IID       0.320500
     37 H13         -3.0690     1.2500    -0.2330 h1         1 IID       0.075700
     38 H141        -3.6780     0.0210    -2.3110 hc         1 IID       0.052950
     39 H142        -4.2750    -1.3460    -1.3710 hc         1 IID       0.052950
     40 H171         2.9960    -0.3100     2.0980 h1         1 IID       0.073200
     41 H172         1.5580     0.6800     1.9190 h1         1 IID       0.073200
     42 H21          1.6710     1.4070    -1.0280 ha         1 IID       0.132000
     43 H22          2.9870     3.0760    -2.3020 ha         1 IID       0.113000
     44 H23          5.1860     3.8370    -1.4750 ha         1 IID       0.116000
     45 H25          4.7920     1.2420     1.9620 ha         1 IID       0.122000
     46 H261        -5.4150     1.5090    -1.3660 h1         1 IID       0.034200
     47 H262        -6.1240     0.0700    -2.1120 h1         1 IID       0.034200
     48 H7C1         6.6950     4.8950     0.0760 h1         1 IID       0.039700
     49 H7C2         8.1240     4.0890     0.7550 h1         1 IID       0.039700
     50 H7C3         7.4920     3.5780    -0.8250 h1         1 IID       0.039700
     51 H101        -4.0790    -1.2670     1.2320 hc         1 IID       0.052950
     52 H102        -3.3620     0.1510     1.9910 hc         1 IID       0.052950
     53 H121        -5.2260     1.5850     1.2260 h1         1 IID       0.034200
     54 H122        -5.8100     0.1940     2.1490 h1         1 IID       0.034200
     55 H16         -7.5470     1.7660     0.0870 h1         1 IID       0.019700
     56 H191        -8.5290    -0.8470    -1.1720 hc         1 IID       0.037867
     57 H192        -9.5540     0.5770    -0.9010 hc         1 IID       0.037867
     58 H193        -8.1910     0.6920    -2.0030 hc         1 IID       0.037867
     59 H201        -8.3230    -0.7650     1.6270 hc         1 IID       0.037867
     60 H202        -7.8740     0.8190     2.3080 hc         1 IID       0.037867
     61 H203        -9.3830     0.6460     1.4260 hc         1 IID       0.037867
@<TRIPOS>BOND
     1     1     2 ar  
     2     1     6 ar  
     3     1    31 1   
     4     2     3 ar  
     5     2    32 1   
     6     3     4 ar  
     7     3     7 1   
     8     4     5 ar  
     9     4     9 1   
    10     5     6 ar  
    11     5    33 1   
    12     6    34 1   
    13     7     8 1   
    14     7    14 1   
    15     8     9 2   
    16     8    10 1   
    17     9    35 1   
    18    10    11 1   
    19    10    23 2   
    20    11    12 1   
    21    11    36 1   
    22    12    13 1   
    23    12    25 1   
    24    12    37 1   
    25    13    21 1   
    26    13    38 1   
    27    13    39 1   
    28    14    15 1   
    29    14    40 1   
    30    14    41 1   
    31    15    16 ar  
    32    15    20 ar  
    33    16    17 ar  
    34    16    42 1   
    35    17    18 ar  
    36    17    43 1   
    37    18    19 ar  
    38    18    44 1   
    39    19    20 ar  
    40    19    22 1   
    41    20    45 1   
    42    21    27 1   
    43    21    46 1   
    44    21    47 1   
    45    22    24 1   
    46    24    48 1   
    47    24    49 1   
    48    24    50 1   
    49    25    26 1   
    50    25    51 1   
    51    25    52 1   
    52    26    27 1   
    53    26    53 1   
    54    26    54 1   
    55    27    28 1   
    56    28    29 1   
    57    28    30 1   
    58    28    55 1   
    59    29    56 1   
    60    29    57 1   
    61    29    58 1   
    62    30    59 1   
    63    30    60 1   
    64    30    61 1   
@<TRIPOS>SUBSTRUCTURE
     1 IID         1 TEMP              0 ****  ****    0 ROOT
