@<TRIPOS>MOLECULE
IIE
   61    64     1     0     0
SMALL
No Charge or Current Charge


@<TRIPOS>ATOM
      1 C1           2.5410     5.8890     0.3770 ca         1 IIE      -0.082000
      2 C2           2.4510     4.7130    -0.4000 ca         1 IIE      -0.126000
      3 C3           1.3450     3.8700    -0.1970 ca         1 IIE      -0.020200
      4 C4           0.3910     4.1750     0.7330 ca         1 IIE      -0.106800
      5 C5           0.4450     5.3300     1.5220 ca         1 IIE      -0.053000
      6 C6           1.5420     6.1970     1.3320 ca         1 IIE      -0.140000
      7 N7           1.0060     2.6660    -0.8090 na         1 IIE      -0.049700
      8 C8          -0.1920     2.1450    -0.2610 cc         1 IIE      -0.132300
      9 C9          -0.5650     3.0990     0.6880 cd         1 IIE      -0.192200
     10 C10         -0.9190     0.8810    -0.5720 c          1 IIE       0.634300
     11 N11         -2.0710     0.6870     0.1550 ns         1 IIE      -0.488900
     12 C12         -2.9690    -0.4690     0.0360 c6         1 IIE       0.108700
     13 C13         -3.9380    -0.2930    -1.1510 c6         1 IIE      -0.092400
     14 C14         -4.9260    -1.4790    -1.2410 c6         1 IIE       0.168300
     15 N15         -5.7140    -1.6610     0.0200 n3         1 IIE      -0.719600
     16 C16         -4.7910    -1.8210     1.1880 c6         1 IIE       0.168300
     17 C17         -3.8020    -0.6390     1.3210 c6         1 IIE      -0.092400
     18 C27         -6.7480    -2.7440    -0.0760 c3         1 IIE       0.186500
     19 C28         -7.5850    -2.9080     1.2210 c3         1 IIE      -0.091600
     20 C32         -7.7220    -2.5590    -1.2700 c3         1 IIE      -0.091600
     21 C37          1.8340     2.0800    -1.8840 c3         1 IIE      -0.000400
     22 C38          2.9160     1.1410    -1.3440 c          1 IIE       0.608100
     23 C43          2.2710    -2.3970    -0.2110 ca         1 IIE      -0.142500
     24 C40          2.8250    -3.5730     0.3250 ca         1 IIE      -0.076000
     25 C45          3.0800    -1.2710    -0.4630 ca         1 IIE      -0.009000
     26 C47          4.1970    -3.6320     0.6130 ca         1 IIE       0.090000
     27 C48          5.0140    -2.5180     0.3670 ca         1 IIE      -0.076000
     28 C49          4.4610    -1.3400    -0.1690 ca         1 IIE      -0.142500
     29 N12          2.4450    -0.1200    -1.0030 ns         1 IIE      -0.138000
     30 O14          4.0830     1.4990    -1.2310 o          1 IIE      -0.553100
     31 Cl50         4.8920    -5.1030     1.2840 cl         1 IIE      -0.207000
     32 O56         -0.5330     0.0620    -1.3930 o          1 IIE      -0.621100
     33 H1           3.3850     6.5620     0.2420 ha         1 IIE       0.112000
     34 H2           3.2230     4.4770    -1.1290 ha         1 IIE       0.115000
     35 H5          -0.3280     5.5490     2.2550 ha         1 IIE       0.115000
     36 H6           1.6220     7.1040     1.9260 ha         1 IIE       0.113000
     37 H9          -1.4440     3.0490     1.3260 ha         1 IIE       0.205000
     38 H11         -2.3150     1.4140     0.8120 hn         1 IIE       0.318500
     39 H12         -2.3630    -1.3740    -0.1210 h1         1 IIE       0.081700
     40 H131        -4.5010     0.6440    -1.0460 hc         1 IIE       0.052200
     41 H132        -3.3730    -0.2170    -2.0900 hc         1 IIE       0.052200
     42 H141        -4.3650    -2.3970    -1.4740 h1         1 IIE       0.035200
     43 H142        -5.5860    -1.2770    -2.0950 h1         1 IIE       0.035200
     44 H161        -5.3520    -1.8720     2.1310 h1         1 IIE       0.035200
     45 H162        -4.2220    -2.7580     1.0970 h1         1 IIE       0.035200
     46 H171        -4.3620     0.2810     1.5370 hc         1 IIE       0.052200
     47 H172        -3.1380    -0.8130     2.1780 hc         1 IIE       0.052200
     48 H27         -6.2340    -3.7020    -0.2390 h1         1 IIE       0.019700
     49 H281        -8.0230    -1.9510     1.5260 hc         1 IIE       0.038033
     50 H282        -8.4010    -3.6250     1.0720 hc         1 IIE       0.038033
     51 H283        -6.9770    -3.2960     2.0460 hc         1 IIE       0.038033
     52 H321        -8.1770    -1.5610    -1.2500 hc         1 IIE       0.038033
     53 H322        -7.2130    -2.6950    -2.2300 hc         1 IIE       0.038033
     54 H323        -8.5280    -3.3010    -1.2350 hc         1 IIE       0.038033
     55 H371         1.1960     1.5180    -2.5750 h1         1 IIE       0.076700
     56 H372         2.3200     2.8760    -2.4580 h1         1 IIE       0.076700
     57 H40          2.1930    -4.4370     0.5160 ha         1 IIE       0.128500
     58 H48          6.0770    -2.5670     0.5920 ha         1 IIE       0.128500
     59 H49          5.1220    -0.4990    -0.3460 ha         1 IIE       0.131500
     60 HA           1.4520    -0.2430    -1.1620 hn         1 IIE       0.151000
     61 H43          1.2060    -2.3610    -0.4310 ha         1 IIE       0.131500
@<TRIPOS>BOND
     1     1     2 ar  
     2     1     6 ar  
     3     1    33 1   
     4     2     3 ar  
     5     2    34 1   
     6     3     4 ar  
     7     3     7 1   
     8     4     5 ar  
     9     4     9 1   
    10     5     6 ar  
    11     5    35 1   
    12     6    36 1   
    13     7     8 1   
    14     7    21 1   
    15     8     9 2   
    16     8    10 1   
    17     9    37 1   
    18    10    11 1   
    19    10    32 2   
    20    11    12 1   
    21    11    38 1   
    22    12    13 1   
    23    12    17 1   
    24    12    39 1   
    25    13    14 1   
    26    13    40 1   
    27    13    41 1   
    28    14    15 1   
    29    14    42 1   
    30    14    43 1   
    31    15    16 1   
    32    15    18 1   
    33    16    17 1   
    34    16    44 1   
    35    16    45 1   
    36    17    46 1   
    37    17    47 1   
    38    18    19 1   
    39    18    20 1   
    40    18    48 1   
    41    19    49 1   
    42    19    50 1   
    43    19    51 1   
    44    20    52 1   
    45    20    53 1   
    46    20    54 1   
    47    21    22 1   
    48    21    55 1   
    49    21    56 1   
    50    22    29 1   
    51    22    30 2   
    52    23    24 ar  
    53    23    25 ar  
    54    23    61 1   
    55    24    26 ar  
    56    24    57 1   
    57    25    28 ar  
    58    25    29 1   
    59    26    27 ar  
    60    26    31 1   
    61    27    28 ar  
    62    27    58 1   
    63    28    59 1   
    64    29    60 1   
@<TRIPOS>SUBSTRUCTURE
     1 IIE         1 TEMP              0 ****  ****    0 ROOT
