@<TRIPOS>MOLECULE
IIE
   61    64     1     0     0
SMALL
abcg2


@<TRIPOS>ATOM
      1 C1           2.4890     5.8340    -0.0040 ca         1 IIE      -0.082000
      2 C2           2.3460     4.5570    -0.5080 ca         1 IIE      -0.126000
      3 C3           1.2100     3.8390    -0.1290 ca         1 IIE      -0.020200
      4 C4           0.2390     4.3890     0.7340 ca         1 IIE      -0.106800
      5 C5           0.4110     5.6870     1.2320 ca         1 IIE      -0.053000
      6 C6           1.5310     6.3970     0.8590 ca         1 IIE      -0.140000
      7 N7           0.8070     2.5790    -0.4750 na         1 IIE      -0.049700
      8 C8          -0.3830     2.3090     0.1630 cc         1 IIE      -0.132300
      9 C9          -0.7640     3.3960     0.9040 cd         1 IIE      -0.192200
     10 C10         -1.0340     0.9850     0.0690 c          1 IIE       0.634300
     11 N11         -2.3480     0.9830     0.3350 ns         1 IIE      -0.488900
     12 C12         -3.1670    -0.2120     0.3340 c6         1 IIE       0.108700
     13 C13         -3.8460    -0.4430    -1.0090 c6         1 IIE      -0.092400
     14 C14         -4.7580    -1.6580    -0.9480 c6         1 IIE       0.168300
     15 N15         -5.7720    -1.5360     0.0880 n3         1 IIE      -0.719600
     16 C16         -5.1340    -1.3610     1.3840 c6         1 IIE       0.168300
     17 C17         -4.2290    -0.1370     1.4170 c6         1 IIE      -0.092400
     18 C27         -6.7070    -2.6670     0.0570 c3         1 IIE       0.186500
     19 C28         -7.6710    -2.6570     1.2400 c3         1 IIE      -0.091600
     20 C32         -7.5360    -2.6570    -1.2270 c3         1 IIE      -0.091600
     21 C37          1.5430     1.6940    -1.3310 c3         1 IIE      -0.000400
     22 C38          2.3360     0.6750    -0.5240 c          1 IIE       0.608100
     23 C43          3.3170    -2.6850    -1.6420 ca         1 IIE      -0.142500
     24 C40          4.0150    -3.8360    -1.3280 ca         1 IIE      -0.076000
     25 C45          3.3820    -1.5540    -0.8240 ca         1 IIE      -0.009000
     26 C47          4.7920    -3.8670    -0.1810 ca         1 IIE       0.090000
     27 C48          4.8730    -2.7560     0.6400 ca         1 IIE      -0.076000
     28 C49          4.1740    -1.6000     0.3240 ca         1 IIE      -0.142500
     29 N12          2.6530    -0.4360    -1.2320 ns         1 IIE      -0.138000
     30 O14          2.6820     0.8980     0.6170 o          1 IIE      -0.553100
     31 CL50         5.6700    -5.3060     0.2240 cl         1 IIE      -0.207000
     32 O56         -0.3920    -0.0250    -0.2030 o          1 IIE      -0.621100
     33 H1           3.3600     6.4140    -0.2800 ha         1 IIE       0.112000
     34 H2           3.0990     4.1370    -1.1630 ha         1 IIE       0.115000
     35 H5          -0.3250     6.1230     1.8960 ha         1 IIE       0.115000
     36 H6           1.6840     7.4010     1.2320 ha         1 IIE       0.113000
     37 H9          -1.6390     3.4670     1.5310 ha         1 IIE       0.205000
     38 H11         -2.8240     1.8680     0.4230 hn         1 IIE       0.318500
     39 H12         -2.5080    -1.0580     0.5420 h1         1 IIE       0.081700
     40 H131        -4.4290     0.4430    -1.2800 hc         1 IIE       0.052200
     41 H132        -3.0990    -0.5920    -1.7910 hc         1 IIE       0.052200
     42 H141        -4.1410    -2.5630    -0.7960 h1         1 IIE       0.035200
     43 H142        -5.2340    -1.7700    -1.9200 h1         1 IIE       0.035200
     44 H161        -5.8940    -1.2250     2.1510 h1         1 IIE       0.035200
     45 H162        -4.5490    -2.2520     1.6740 h1         1 IIE       0.035200
     46 H171        -4.8380     0.7620     1.2750 hc         1 IIE       0.052200
     47 H172        -3.7660    -0.0630     2.4040 hc         1 IIE       0.052200
     48 H27         -6.1410    -3.6160     0.0920 h1         1 IIE       0.019700
     49 H281        -8.1900    -1.6980     1.3090 hc         1 IIE       0.038033
     50 H282        -8.4240    -3.4330     1.1000 hc         1 IIE       0.038033
     51 H283        -7.1880    -2.8550     2.1960 hc         1 IIE       0.038033
     52 H321        -8.1060    -1.7280    -1.3010 hc         1 IIE       0.038033
     53 H322        -6.9400    -2.7600    -2.1330 hc         1 IIE       0.038033
     54 H323        -8.2420    -3.4870    -1.2180 hc         1 IIE       0.038033
     55 H371         0.8820     1.2150    -2.0520 h1         1 IIE       0.076700
     56 H372         2.2510     2.2850    -1.9160 h1         1 IIE       0.076700
     57 H40          3.9470    -4.7000    -1.9740 ha         1 IIE       0.128500
     58 H48          5.4860    -2.7760     1.5310 ha         1 IIE       0.128500
     59 H49          4.2590    -0.7490     0.9780 ha         1 IIE       0.131500
     60 HA           2.2320    -0.5170    -2.1450 hn         1 IIE       0.151000
     61 H43          2.7060    -2.6690    -2.5380 ha         1 IIE       0.131500
@<TRIPOS>BOND
     1     1     2 ar  
     2     1     6 ar  
     3     1    33 1   
     4     2     3 ar  
     5     2    34 1   
     6     3     4 ar  
     7     3     7 1   
     8     4     5 ar  
     9     4     9 1   
    10     5     6 ar  
    11     5    35 1   
    12     6    36 1   
    13     7     8 1   
    14     7    21 1   
    15     8     9 2   
    16     8    10 1   
    17     9    37 1   
    18    10    11 1   
    19    10    32 2   
    20    11    12 1   
    21    11    38 1   
    22    12    13 1   
    23    12    17 1   
    24    12    39 1   
    25    13    14 1   
    26    13    40 1   
    27    13    41 1   
    28    14    15 1   
    29    14    42 1   
    30    14    43 1   
    31    15    16 1   
    32    15    18 1   
    33    16    17 1   
    34    16    44 1   
    35    16    45 1   
    36    17    46 1   
    37    17    47 1   
    38    18    19 1   
    39    18    20 1   
    40    18    48 1   
    41    19    49 1   
    42    19    50 1   
    43    19    51 1   
    44    20    52 1   
    45    20    53 1   
    46    20    54 1   
    47    21    22 1   
    48    21    55 1   
    49    21    56 1   
    50    22    29 1   
    51    22    30 2   
    52    23    24 ar  
    53    23    25 ar  
    54    23    61 1   
    55    24    26 ar  
    56    24    57 1   
    57    25    28 ar  
    58    25    29 1   
    59    26    27 ar  
    60    26    31 1   
    61    27    28 ar  
    62    27    58 1   
    63    28    59 1   
    64    29    60 1   
@<TRIPOS>SUBSTRUCTURE
     1 IIE         1 TEMP              0 ****  ****    0 ROOT
