@<TRIPOS>MOLECULE
IIG
   57    60     1     0     0
SMALL
No Charge or Current Charge


@<TRIPOS>ATOM
      1 N1          -2.2440    -1.7240    -0.4210 n          1 IIG      -0.379800
      2 C4           1.2590    -1.2720    -1.6810 ca         1 IIG      -0.077500
      3 C5           0.2330    -1.4960    -0.7430 ca         1 IIG      -0.118600
      4 C6           0.5010    -1.2570     0.6180 ca         1 IIG      -0.077500
      5 C7           1.7490    -0.7580     1.0270 ca         1 IIG      -0.091500
      6 C8           4.1510     0.0520     0.5520 c3         1 IIG       0.192300
      7 C10          3.9900     1.1490     1.6400 c3         1 IIG      -0.085100
      8 C13         -3.3340    -2.6980    -0.3400 cx         1 IIG       0.035700
      9 C15         -4.0010    -3.0820     0.9600 cx         1 IIG      -0.127400
     10 C17         -3.2430     1.6730     1.2300 c6         1 IIG      -0.081400
     11 C20         -3.4510     4.0410     0.3530 cx         1 IIG      -0.157700
     12 C21         -3.6040     5.0570    -0.7600 cx         1 IIG      -0.127900
     13 C22         -4.8180     4.3140    -0.2380 cx         1 IIG      -0.127900
     14 C1          -2.7050     2.6920     0.1800 c6         1 IIG       0.213000
     15 C18         -2.8020     2.0690    -1.2530 c6         1 IIG      -0.081400
     16 C19         -2.1240     0.6750    -1.3450 c6         1 IIG      -0.084900
     17 O3          -1.3370     2.9820     0.4650 oh         1 IIG      -0.656000
     18 C16         -2.5660     0.2800     1.1220 c6         1 IIG      -0.084900
     19 C12         -2.7300    -0.3090    -0.3040 c6         1 IIG       0.123700
     20 C14         -3.1410    -4.0830     0.2300 cx         1 IIG      -0.127400
     21 C11         -1.1030    -2.0340    -1.1980 c          1 IIG       0.609700
     22 O2          -1.1770    -2.8130    -2.1420 o          1 IIG      -0.579100
     23 C3           2.5080    -0.7720    -1.2750 ca         1 IIG      -0.091500
     24 C2           2.7720    -0.4880     0.0880 ca         1 IIG      -0.116300
     25 C9           5.0540    -1.1320     1.0660 c3         1 IIG       0.261000
     26 F2           4.4950    -1.7620     2.1260 f          1 IIG      -0.112667
     27 F3           5.2440    -2.0570     0.0960 f          1 IIG      -0.112667
     28 F1           6.2770    -0.6930     1.4530 f          1 IIG      -0.112667
     29 O1           4.8070     0.7110    -0.5490 oh         1 IIG      -0.638000
     30 H6          -0.2480    -1.4860     1.3720 ha         1 IIG       0.125000
     31 H7           1.9130    -0.6010     2.0890 ha         1 IIG       0.120000
     32 H10          3.6370     0.7350     2.5910 hc         1 IIG       0.062033
     33 H10A         4.9470     1.6460     1.8370 hc         1 IIG       0.062033
     34 H10B         3.2760     1.9130     1.3130 hc         1 IIG       0.062033
     35 H13         -3.9570    -2.6000    -1.2310 h1         1 IIG       0.080700
     36 H15         -3.6070    -2.6710     1.8860 hc         1 IIG       0.077700
     37 H15A        -5.0770    -3.2310     0.9490 hc         1 IIG       0.077700
     38 H17         -3.0990     2.0680     2.2440 hc         1 IIG       0.048950
     39 H17A        -4.3280     1.5560     1.1010 hc         1 IIG       0.048950
     40 H20         -3.2900     4.4540     1.3470 hc         1 IIG       0.087700
     41 H21         -3.5060     6.1080    -0.4980 hc         1 IIG       0.071950
     42 H21A        -3.2590     4.8120    -1.7610 hc         1 IIG       0.071950
     43 H22         -5.2740     3.5710    -0.8860 hc         1 IIG       0.071950
     44 H22A        -5.5260     4.8700     0.3710 hc         1 IIG       0.071950
     45 H18         -3.8530     1.9590    -1.5490 hc         1 IIG       0.048950
     46 H18A        -2.3410     2.7340    -1.9940 hc         1 IIG       0.048950
     47 H19         -2.2570     0.2750    -2.3600 hc         1 IIG       0.055950
     48 H19A        -1.0430     0.7910    -1.1900 hc         1 IIG       0.055950
     49 HO3         -1.1130     3.7700    -0.0720 ho         1 IIG       0.442000
     50 H16         -1.5060     0.3800     1.3790 hc         1 IIG       0.055950
     51 H16A        -3.0070    -0.3960     1.8650 hc         1 IIG       0.055950
     52 H12         -3.8110    -0.3260    -0.5060 h1         1 IIG       0.050700
     53 H14         -3.6360    -4.9080    -0.2740 hc         1 IIG       0.077700
     54 H14A        -2.1710    -4.3240     0.6580 hc         1 IIG       0.077700
     55 H3           3.2650    -0.6120    -2.0380 ha         1 IIG       0.120000
     56 HO1          5.1470     0.0080    -1.1440 ho         1 IIG       0.461000
     57 H4           1.0840    -1.4740    -2.7360 ha         1 IIG       0.125000
@<TRIPOS>BOND
     1     1     8 1   
     2     1    19 1   
     3     1    21 1   
     4     2     3 ar  
     5     2    23 ar  
     6     2    57 1   
     7     3     4 ar  
     8     3    21 1   
     9     4     5 ar  
    10     4    30 1   
    11     5    24 ar  
    12     5    31 1   
    13     6     7 1   
    14     6    24 1   
    15     6    25 1   
    16     6    29 1   
    17     7    32 1   
    18     7    33 1   
    19     7    34 1   
    20     8     9 1   
    21     8    20 1   
    22     8    35 1   
    23     9    20 1   
    24     9    36 1   
    25     9    37 1   
    26    10    14 1   
    27    10    18 1   
    28    10    38 1   
    29    10    39 1   
    30    11    12 1   
    31    11    13 1   
    32    11    14 1   
    33    11    40 1   
    34    12    13 1   
    35    12    41 1   
    36    12    42 1   
    37    13    43 1   
    38    13    44 1   
    39    14    15 1   
    40    14    17 1   
    41    15    16 1   
    42    15    45 1   
    43    15    46 1   
    44    16    19 1   
    45    16    47 1   
    46    16    48 1   
    47    17    49 1   
    48    18    19 1   
    49    18    50 1   
    50    18    51 1   
    51    19    52 1   
    52    20    53 1   
    53    20    54 1   
    54    21    22 2   
    55    23    24 ar  
    56    23    55 1   
    57    25    26 1   
    58    25    27 1   
    59    25    28 1   
    60    29    56 1   
@<TRIPOS>SUBSTRUCTURE
     1 IIG         1 TEMP              0 ****  ****    0 ROOT
