@<TRIPOS>MOLECULE
IIG
   57    60     1     0     0
SMALL
abcg2


@<TRIPOS>ATOM
      1 N1          -2.2760    -1.8090    -0.4490 n          1 IIG      -0.379800
      2 C4           1.0440    -1.1630    -1.5180 ca         1 IIG      -0.077500
      3 C5           0.1710    -1.5560    -0.5110 ca         1 IIG      -0.118600
      4 C6           0.5550    -1.3850     0.8120 ca         1 IIG      -0.077500
      5 C7           1.7780    -0.8100     1.1220 ca         1 IIG      -0.091500
      6 C8           3.9820     0.2730     0.4580 c3         1 IIG       0.192300
      7 C10          3.7890     1.4130     1.4550 c3         1 IIG      -0.085100
      8 C13         -3.4060    -2.6730    -0.6570 cx         1 IIG       0.035700
      9 C15         -4.4260    -2.7880     0.4310 cx         1 IIG      -0.127400
     10 C17         -2.9560     1.5460     1.2870 c6         1 IIG      -0.081400
     11 C20         -3.1740     3.8630     0.4280 cx         1 IIG      -0.157700
     12 C21         -3.4170     4.8410    -0.6820 cx         1 IIG      -0.127900
     13 C22         -4.5690     4.1210    -0.0440 cx         1 IIG      -0.127900
     14 C1          -2.4600     2.5370     0.2310 c6         1 IIG       0.213000
     15 C18         -2.6570     1.9400    -1.1680 c6         1 IIG      -0.081400
     16 C19         -2.0220     0.5580    -1.3030 c6         1 IIG      -0.084900
     17 O3          -1.0740     2.7240     0.4800 oh         1 IIG      -0.656000
     18 C16         -2.3310     0.1610     1.1490 c6         1 IIG      -0.084900
     19 C12         -2.6000    -0.3830    -0.2490 c6         1 IIG       0.123700
     20 C14         -3.5140    -3.9360     0.1250 cx         1 IIG      -0.127400
     21 C11         -1.0800    -2.2950    -0.8630 c          1 IIG       0.609700
     22 O2          -0.9740    -3.3520    -1.4670 o          1 IIG      -0.579100
     23 C3           2.2550    -0.5650    -1.2060 ca         1 IIG      -0.091500
     24 C2           2.6460    -0.3870     0.1180 ca         1 IIG      -0.116300
     25 C9           4.9390    -0.7890     1.0310 c3         1 IIG       0.261000
     26 F2           4.4850    -1.3470     2.1570 f          1 IIG      -0.112667
     27 F3           5.1330    -1.7820     0.1500 f          1 IIG      -0.112667
     28 F1           6.1410    -0.2750     1.3100 f          1 IIG      -0.112667
     29 O1           4.6060     0.8370    -0.6620 oh         1 IIG      -0.638000
     30 H6          -0.0920    -1.7140     1.6150 ha         1 IIG       0.125000
     31 H7           2.0290    -0.6930     2.1670 ha         1 IIG       0.120000
     32 H10          3.3370     1.0780     2.3850 hc         1 IIG       0.062033
     33 H10A         4.7370     1.8960     1.6900 hc         1 IIG       0.062033
     34 H10B         3.1280     2.1570     1.0140 hc         1 IIG       0.062033
     35 H13         -3.7840    -2.6950    -1.6760 h1         1 IIG       0.080700
     36 H15         -4.2580    -2.2480     1.3550 hc         1 IIG       0.077700
     37 H15A        -5.4650    -2.8510     0.1350 hc         1 IIG       0.077700
     38 H17         -2.7540     1.9470     2.2840 hc         1 IIG       0.048950
     39 H17A        -4.0440     1.4690     1.1980 hc         1 IIG       0.048950
     40 H20         -2.9290     4.3110     1.3880 hc         1 IIG       0.087700
     41 H21         -3.2850     5.8940    -0.4710 hc         1 IIG       0.071950
     42 H21A        -3.1520     4.5590    -1.6930 hc         1 IIG       0.071950
     43 H22         -5.0720     3.3570    -0.6230 hc         1 IIG       0.071950
     44 H22A        -5.2280     4.6790     0.6090 hc         1 IIG       0.071950
     45 H18         -3.7250     1.8710    -1.3960 hc         1 IIG       0.048950
     46 H18A        -2.2240     2.6050    -1.9210 hc         1 IIG       0.048950
     47 H19         -2.2180     0.1670    -2.3040 hc         1 IIG       0.055950
     48 H19A        -0.9410     0.6490    -1.1950 hc         1 IIG       0.055950
     49 HO3         -0.7210     3.2930    -0.2120 ho         1 IIG       0.442000
     50 H16         -1.2600     0.2250     1.3350 hc         1 IIG       0.055950
     51 H16A        -2.7520    -0.5090     1.9020 hc         1 IIG       0.055950
     52 H12         -3.6850    -0.3550    -0.3870 h1         1 IIG       0.050700
     53 H14         -3.9160    -4.8080    -0.3740 hc         1 IIG       0.077700
     54 H14A        -2.7320    -4.1500     0.8430 hc         1 IIG       0.077700
     55 H3           2.8770    -0.2360    -2.0270 ha         1 IIG       0.120000
     56 HO1          4.7900     0.1680    -1.3310 ho         1 IIG       0.461000
     57 H4           0.7710    -1.2980    -2.5570 ha         1 IIG       0.125000
@<TRIPOS>BOND
     1     1     8 1   
     2     1    19 1   
     3     1    21 1   
     4     2     3 ar  
     5     2    23 ar  
     6     2    57 1   
     7     3     4 ar  
     8     3    21 1   
     9     4     5 ar  
    10     4    30 1   
    11     5    24 ar  
    12     5    31 1   
    13     6     7 1   
    14     6    24 1   
    15     6    25 1   
    16     6    29 1   
    17     7    32 1   
    18     7    33 1   
    19     7    34 1   
    20     8     9 1   
    21     8    20 1   
    22     8    35 1   
    23     9    20 1   
    24     9    36 1   
    25     9    37 1   
    26    10    14 1   
    27    10    18 1   
    28    10    38 1   
    29    10    39 1   
    30    11    12 1   
    31    11    13 1   
    32    11    14 1   
    33    11    40 1   
    34    12    13 1   
    35    12    41 1   
    36    12    42 1   
    37    13    43 1   
    38    13    44 1   
    39    14    15 1   
    40    14    17 1   
    41    15    16 1   
    42    15    45 1   
    43    15    46 1   
    44    16    19 1   
    45    16    47 1   
    46    16    48 1   
    47    17    49 1   
    48    18    19 1   
    49    18    50 1   
    50    18    51 1   
    51    19    52 1   
    52    20    53 1   
    53    20    54 1   
    54    21    22 2   
    55    23    24 ar  
    56    23    55 1   
    57    25    26 1   
    58    25    27 1   
    59    25    28 1   
    60    29    56 1   
@<TRIPOS>SUBSTRUCTURE
     1 IIG         1 TEMP              0 ****  ****    0 ROOT
