@<TRIPOS>MOLECULE
III
   36    38     1     0     0
SMALL
No Charge or Current Charge


@<TRIPOS>ATOM
      1 C1           2.3840     2.5620    -1.3800 c3         1 III       0.212600
      2 N2           1.5810     2.2070    -0.1890 nh         1 III      -0.783300
      3 C3           1.0820     3.3340     0.6300 c3         1 III       0.212600
      4 C4           0.9770     0.9320    -0.0980 ca         1 III       0.437900
      5 N5          -0.3650     0.9360    -0.0590 nb         1 III      -0.337000
      6 C6          -0.9750    -0.2570    -0.0020 ca         1 III       0.438900
      7 N7          -0.3690    -1.4590     0.0220 nb         1 III      -0.293000
      8 C8           0.9770    -1.4830    -0.0030 ca         1 III       0.099000
      9 C9           1.6640    -2.7100     0.0320 ca         1 III      -0.125000
     10 C10          3.0680    -2.7470     0.0250 ca         1 III      -0.071000
     11 C11          3.7980    -1.5490    -0.0110 ca         1 III      -0.159000
     12 C12          3.1270    -0.3160    -0.0490 ca         1 III      -0.050000
     13 C13          1.7140    -0.2770    -0.0580 ca         1 III      -0.215000
     14 N14         -2.3870    -0.2490     0.0340 nh         1 III      -0.785300
     15 C15         -3.2240    -1.4810     0.0380 c5         1 III       0.240300
     16 C16         -4.6250    -0.9080    -0.2960 c5         1 III      -0.098400
     17 C17         -4.5970     0.4340     0.4790 c5         1 III      -0.098400
     18 C18         -3.2090     0.9920     0.0730 c5         1 III       0.240300
     19 H1           3.3950     2.8730    -1.0820 h1         1 III       0.041700
     20 H2           2.4770     1.7040    -2.0590 h1         1 III       0.041700
     21 H3           1.9110     3.3830    -1.9350 h1         1 III       0.041700
     22 H4           0.2170     3.8090     0.1480 h1         1 III       0.041700
     23 H5           0.7820     2.9830     1.6270 h1         1 III       0.041700
     24 H6           1.8670     4.0900     0.7640 h1         1 III       0.041700
     25 H7           1.1040    -3.6410     0.0700 ha         1 III       0.128000
     26 H8           3.5880    -3.7020     0.0550 ha         1 III       0.111000
     27 H9           4.8850    -1.5750    -0.0060 ha         1 III       0.112000
     28 H10          3.7140     0.5980    -0.0590 ha         1 III       0.109000
     29 H11         -2.9050    -2.2170    -0.7140 h1         1 III       0.053950
     30 H12         -3.2130    -1.9630     1.0260 h1         1 III       0.053950
     31 H13         -4.7400    -0.7450    -1.3740 hc         1 III       0.052450
     32 H14         -5.4340    -1.5710     0.0270 hc         1 III       0.052450
     33 H15         -5.4150     1.1060     0.1980 hc         1 III       0.052450
     34 H16         -4.6590     0.2710     1.5620 hc         1 III       0.052450
     35 H17         -2.8440     1.7240     0.8080 h1         1 III       0.053950
     36 H18         -3.2440     1.4730    -0.9140 h1         1 III       0.053950
@<TRIPOS>BOND
     1     1     2 1   
     2     1    19 1   
     3     1    20 1   
     4     1    21 1   
     5     2     3 1   
     6     2     4 1   
     7     3    22 1   
     8     3    23 1   
     9     3    24 1   
    10     4     5 ar  
    11     4    13 ar  
    12     5     6 ar  
    13     6     7 ar  
    14     6    14 1   
    15     7     8 ar  
    16     8     9 ar  
    17     8    13 ar  
    18     9    10 ar  
    19     9    25 1   
    20    10    11 ar  
    21    10    26 1   
    22    11    12 ar  
    23    11    27 1   
    24    12    13 ar  
    25    12    28 1   
    26    14    15 1   
    27    14    18 1   
    28    15    16 1   
    29    15    29 1   
    30    15    30 1   
    31    16    17 1   
    32    16    31 1   
    33    16    32 1   
    34    17    18 1   
    35    17    33 1   
    36    17    34 1   
    37    18    35 1   
    38    18    36 1   
@<TRIPOS>SUBSTRUCTURE
     1 III         1 TEMP              0 ****  ****    0 ROOT
