@<TRIPOS>MOLECULE
III
   36    38     1     0     0
SMALL
bcc


@<TRIPOS>ATOM
      1 C1           2.6920     2.4730    -0.9680 c3         1 III       0.212600
      2 N2           1.4860     2.1950    -0.2090 nh         1 III      -0.783300
      3 C3           0.6700     3.3630     0.0560 c3         1 III       0.212600
      4 C4           0.9220     0.9680    -0.1290 ca         1 III       0.766200
      5 N5          -0.3870     0.9190    -0.0250 nb         1 III      -0.863000
      6 C6          -0.9980    -0.2840    -0.0270 ca         1 III       0.964900
      7 N7          -0.4110    -1.4580    -0.1740 nb         1 III      -0.819000
      8 C8           0.9390    -1.4450    -0.1960 ca         1 III       0.492600
      9 C9           1.6260    -2.6800    -0.2480 ca         1 III      -0.208300
     10 C10          2.9920    -2.7280    -0.1470 ca         1 III      -0.089000
     11 C11          3.7370    -1.5500     0.0250 ca         1 III      -0.177000
     12 C12          3.0960    -0.3350     0.0380 ca         1 III      -0.068000
     13 C13          1.6990    -0.2520    -0.1230 ca         1 III      -0.345600
     14 N14         -2.3360    -0.2560     0.1010 nh         1 III      -0.785300
     15 C15         -3.1630    -1.4470     0.0220 c5         1 III       0.240300
     16 C16         -4.5750    -0.8820    -0.1060 c5         1 III      -0.098400
     17 C17         -4.4940     0.4380     0.6550 c5         1 III      -0.098400
     18 C18         -3.1060     0.9620     0.3000 c5         1 III       0.240300
     19 H1           3.5390     2.7280    -0.3290 h1         1 III       0.041700
     20 H2           2.9690     1.6330    -1.6000 h1         1 III       0.041700
     21 H3           2.5030     3.3210    -1.6270 h1         1 III       0.041700
     22 H4           0.1080     3.6840    -0.8260 h1         1 III       0.041700
     23 H5          -0.0350     3.1700     0.8590 h1         1 III       0.041700
     24 H6           1.3260     4.1790     0.3580 h1         1 III       0.041700
     25 H7           1.0420    -3.5870    -0.3420 ha         1 III       0.146000
     26 H8           3.5000    -3.6840    -0.1770 ha         1 III       0.129000
     27 H9           4.8100    -1.5980     0.1510 ha         1 III       0.130000
     28 H10          3.6830     0.5570     0.2000 ha         1 III       0.127000
     29 H11         -2.8820    -2.0700    -0.8280 h1         1 III       0.053950
     30 H12         -3.0590    -2.0620     0.9230 h1         1 III       0.053950
     31 H13         -4.8100    -0.6980    -1.1560 hc         1 III       0.052450
     32 H14         -5.3280    -1.5630     0.2890 hc         1 III       0.052450
     33 H15         -5.2800     1.1420     0.3850 hc         1 III       0.052450
     34 H16         -4.5640     0.2590     1.7300 hc         1 III       0.052450
     35 H17         -2.6750     1.5810     1.0870 h1         1 III       0.053950
     36 H18         -3.1280     1.5670    -0.6120 h1         1 III       0.053950
@<TRIPOS>BOND
     1     1     2 1   
     2     1    19 1   
     3     1    20 1   
     4     1    21 1   
     5     2     3 1   
     6     2     4 1   
     7     3    22 1   
     8     3    23 1   
     9     3    24 1   
    10     4     5 ar  
    11     4    13 ar  
    12     5     6 ar  
    13     6     7 ar  
    14     6    14 1   
    15     7     8 ar  
    16     8     9 ar  
    17     8    13 ar  
    18     9    10 ar  
    19     9    25 1   
    20    10    11 ar  
    21    10    26 1   
    22    11    12 ar  
    23    11    27 1   
    24    12    13 ar  
    25    12    28 1   
    26    14    15 1   
    27    14    18 1   
    28    15    16 1   
    29    15    29 1   
    30    15    30 1   
    31    16    17 1   
    32    16    31 1   
    33    16    32 1   
    34    17    18 1   
    35    17    33 1   
    36    17    34 1   
    37    18    35 1   
    38    18    36 1   
@<TRIPOS>SUBSTRUCTURE
     1 III         1 TEMP              0 ****  ****    0 ROOT
