@<TRIPOS>MOLECULE
IIL
   21    20     1     0     0
SMALL
No Charge or Current Charge


@<TRIPOS>ATOM
      1 N           25.7450     2.1320    -7.3710 n8         1 IIL      -0.873800
      2 CA          24.6060     2.3050    -6.3900 c3         1 IIL       0.023500
      3 C           24.5850     1.2780    -5.1690 c          1 IIL       0.939600
      4 O           24.7510     1.7100    -4.0310 o          1 IIL      -0.840800
      5 CB          23.2340     2.3750    -7.1510 c3         1 IIL      -0.080700
      6 CG2         23.2270     3.4900    -8.2380 c3         1 IIL      -0.086100
      7 CG1         22.0310     2.5400    -6.1690 c3         1 IIL      -0.067400
      8 CD1         20.6330     2.5040    -6.8260 c3         1 IIL      -0.084100
      9 OXT         24.5050     0.0740    -5.4050 o          1 IIL      -0.840800
     10 H           25.5970     2.7600    -8.1660 hn         1 IIL       0.316800
     11 H2          25.6960     1.1890    -7.7710 hn         1 IIL       0.316800
     12 HA          24.7540     3.2940    -5.9350 h1         1 IIL       0.041700
     13 HB          23.0980     1.4160    -7.6670 hc         1 IIL       0.049700
     14 HG21        22.2940     3.4800    -8.8120 hc         1 IIL       0.012700
     15 HG22        23.3360     4.4810    -7.7790 hc         1 IIL       0.012700
     16 HG23        24.0370     3.3580    -8.9640 hc         1 IIL       0.012700
     17 HG12        22.0490     1.7360    -5.4240 hc         1 IIL       0.052700
     18 HG13        22.1380     3.4800    -5.6130 hc         1 IIL       0.052700
     19 HD11        19.8540     2.4770    -6.0550 hc         1 IIL       0.014367
     20 HD12        20.4580     3.3930    -7.4430 hc         1 IIL       0.014367
     21 HD13        20.5210     1.6120    -7.4550 hc         1 IIL       0.014367
@<TRIPOS>BOND
     1     1     2 1   
     2     1    10 1   
     3     1    11 1   
     4     2     3 1   
     5     2     5 1   
     6     2    12 1   
     7     3     4 1   
     8     3     9 1   
     9     5     6 1   
    10     5     7 1   
    11     5    13 1   
    12     6    14 1   
    13     6    15 1   
    14     6    16 1   
    15     7     8 1   
    16     7    17 1   
    17     7    18 1   
    18     8    19 1   
    19     8    20 1   
    20     8    21 1   
@<TRIPOS>SUBSTRUCTURE
     1 IIL         1 TEMP              0 ****  ****    0 ROOT
