@<TRIPOS>MOLECULE
IIL
   21    20     1     0     0
SMALL
bcc


@<TRIPOS>ATOM
      1 N           25.7300     2.1110    -7.2620 n8         1 IIL      -0.873800
      2 CA          24.5730     2.3570    -6.4050 c3         1 IIL       0.023500
      3 C           24.5840     1.2710    -5.3060 c          1 IIL       0.939600
      4 O           24.5810     1.6450    -4.1160 o          1 IIL      -0.840800
      5 CB          23.2140     2.3810    -7.1400 c3         1 IIL      -0.080700
      6 CG2         23.1970     3.4490    -8.2300 c3         1 IIL      -0.086100
      7 CG1         22.0530     2.5840    -6.1600 c3         1 IIL      -0.067400
      8 CD1         20.6690     2.5010    -6.7940 c3         1 IIL      -0.084100
      9 OXT         24.5940     0.0910    -5.7180 o          1 IIL      -0.840800
     10 H           25.7530     2.7640    -8.0350 hn         1 IIL       0.316800
     11 H2          25.6320     1.1880    -7.6680 hn         1 IIL       0.316800
     12 HA          24.7130     3.3380    -5.9360 h1         1 IIL       0.041700
     13 HB          23.0860     1.3990    -7.6160 hc         1 IIL       0.049700
     14 HG21        22.2710     3.4300    -8.8060 hc         1 IIL       0.012700
     15 HG22        23.2970     4.4480    -7.7970 hc         1 IIL       0.012700
     16 HG23        24.0070     3.3160    -8.9480 hc         1 IIL       0.012700
     17 HG12        22.1070     1.8330    -5.3680 hc         1 IIL       0.052700
     18 HG13        22.1710     3.5530    -5.6630 hc         1 IIL       0.052700
     19 HD11        19.8890     2.5500    -6.0330 hc         1 IIL       0.014367
     20 HD12        20.4840     3.3120    -7.4980 hc         1 IIL       0.014367
     21 HD13        20.5430     1.5610    -7.3340 hc         1 IIL       0.014367
@<TRIPOS>BOND
     1     1     2 1   
     2     1    10 1   
     3     1    11 1   
     4     2     3 1   
     5     2     5 1   
     6     2    12 1   
     7     3     4 1   
     8     3     9 1   
     9     5     6 1   
    10     5     7 1   
    11     5    13 1   
    12     6    14 1   
    13     6    15 1   
    14     6    16 1   
    15     7     8 1   
    16     7    17 1   
    17     7    18 1   
    18     8    19 1   
    19     8    20 1   
    20     8    21 1   
@<TRIPOS>SUBSTRUCTURE
     1 IIL         1 TEMP              0 ****  ****    0 ROOT
