@<TRIPOS>MOLECULE
IIM
   43    46     1     0     0
SMALL
abcg2


@<TRIPOS>ATOM
      1 O2          34.9180    45.2710    21.6410 o          1 IIM      -0.508000
      2 C1          34.1520    44.7880    24.1440 c3         1 IIM      -0.061800
      3 S1          35.0200    44.1830    22.6780 sx         1 IIM       0.238200
      4 CA1         32.0850    42.1300    20.8080 ca         1 IIM      -0.102000
      5 CA2         32.9630    43.1330    21.1800 ca         1 IIM      -0.047500
      6 CA3         33.8400    42.9100    22.2300 ca         1 IIM      -0.063500
      7 CA4         33.8650    41.6910    22.8910 ca         1 IIM      -0.047500
      8 CA5         32.9800    40.6950    22.5190 ca         1 IIM      -0.102000
      9 CA6         32.0780    40.9030    21.4730 ca         1 IIM      -0.095500
     10 NB1         28.8620    34.0590    22.1860 nb         1 IIM      -0.658000
     11 CB2         29.0120    34.3730    20.9030 ca         1 IIM       0.338400
     12 CB3         29.3860    35.6280    20.4550 ca         1 IIM      -0.157500
     13 CB4         29.6130    36.6400    21.3880 ca         1 IIM       0.027000
     14 CB5         29.4610    36.3100    22.7350 ca         1 IIM      -0.157500
     15 CB6         29.0900    35.0190    23.0740 ca         1 IIM       0.338400
     16 NC1         30.9190    38.7130    21.6940 na         1 IIM      -0.276500
     17 CC2         31.1450    39.8700    21.0380 cc         1 IIM       0.465000
     18 NC3         30.4170    39.9270    19.9450 nd         1 IIM      -0.662000
     19 CC4         29.7090    38.7690    19.8850 cd         1 IIM       0.332500
     20 CC5         30.0200    37.9770    20.9750 cc         1 IIM      -0.148000
     21 CD1         27.5580    37.8740    18.9780 ca         1 IIM      -0.064000
     22 CD2         26.7000    37.6300    17.9170 ca         1 IIM      -0.158000
     23 CD3         27.0720    38.0490    16.6540 ca         1 IIM       0.175000
     24 CD4         28.2590    38.7160    16.4240 ca         1 IIM      -0.158000
     25 CD5         29.1070    38.9480    17.4950 ca         1 IIM      -0.064000
     26 CD6         28.7790    38.5180    18.7810 ca         1 IIM      -0.131500
     27 H2          34.7340    45.6170    24.5450 h1         1 IIM       0.079367
     28 H3          33.1560    45.1260    23.8610 h1         1 IIM       0.079367
     29 H4          34.0910    43.9950    24.8870 h1         1 IIM       0.079367
     30 H5          31.3940    42.2980    19.9920 ha         1 IIM       0.123500
     31 H6          32.9630    44.0790    20.6550 ha         1 IIM       0.131500
     32 H7          34.5730    41.5080    23.6910 ha         1 IIM       0.131500
     33 H8          33.0210    39.7510    23.0460 ha         1 IIM       0.123500
     34 H9          28.8340    33.5800    20.1860 h4         1 IIM       0.022600
     35 H10         29.5130    35.8030    19.3960 ha         1 IIM       0.128500
     36 H11         29.6090    37.0440    23.5170 ha         1 IIM       0.128500
     37 H12         28.9670    34.7540    24.1180 h4         1 IIM       0.022600
     38 H13         31.3700    38.4060    22.5430 hn         1 IIM       0.358000
     39 H15         27.2600    37.5660    19.9710 ha         1 IIM       0.127000
     40 H16         25.7530    37.1290    18.0740 ha         1 IIM       0.133000
     41 H17         28.5230    39.0420    15.4270 ha         1 IIM       0.133000
     42 H18         30.0440    39.4620    17.3240 ha         1 IIM       0.127000
     43 FD3         26.2540    37.8070    15.6180 f          1 IIM      -0.179000
@<TRIPOS>BOND
     1     1     3 2   
     2     2     3 1   
     3     2    27 1   
     4     2    28 1   
     5     2    29 1   
     6     3     6 1   
     7     4     5 ar  
     8     4     9 ar  
     9     4    30 1   
    10     5     6 ar  
    11     5    31 1   
    12     6     7 ar  
    13     7     8 ar  
    14     7    32 1   
    15     8     9 ar  
    16     8    33 1   
    17     9    17 1   
    18    10    11 ar  
    19    10    15 ar  
    20    11    12 ar  
    21    11    34 1   
    22    12    13 ar  
    23    12    35 1   
    24    13    14 ar  
    25    13    20 1   
    26    14    15 ar  
    27    14    36 1   
    28    15    37 1   
    29    16    17 1   
    30    16    20 1   
    31    16    38 1   
    32    17    18 2   
    33    18    19 1   
    34    19    20 2   
    35    19    26 1   
    36    21    22 ar  
    37    21    26 ar  
    38    21    39 1   
    39    22    23 ar  
    40    22    40 1   
    41    23    24 ar  
    42    23    43 1   
    43    24    25 ar  
    44    24    41 1   
    45    25    26 ar  
    46    25    42 1   
@<TRIPOS>SUBSTRUCTURE
     1 IIM         1 TEMP              0 ****  ****    0 ROOT
