@<TRIPOS>MOLECULE
IIM
   43    46     1     0     0
SMALL
No Charge or Current Charge


@<TRIPOS>ATOM
      1 O2          35.8070    44.7510    21.7930 o          1 IIM      -0.508000
      2 C1          33.8870    45.2990    23.6600 c3         1 IIM      -0.061800
      3 S1          35.1670    44.1200    23.0180 sx         1 IIM       0.238200
      4 CA1         32.4060    41.9860    20.8110 ca         1 IIM      -0.102000
      5 CA2         33.2970    42.9840    21.2410 ca         1 IIM      -0.047500
      6 CA3         34.0090    42.8220    22.4410 ca         1 IIM      -0.063500
      7 CA4         33.8270    41.6610    23.2100 ca         1 IIM      -0.047500
      8 CA5         32.9360    40.6620    22.7800 ca         1 IIM      -0.102000
      9 CA6         32.2120    40.8100    21.5720 ca         1 IIM      -0.095500
     10 NB1         28.7910    33.8920    21.8740 nb         1 IIM      -0.658000
     11 CB2         29.2210    34.2390    20.6380 ca         1 IIM       0.338400
     12 CB3         29.6570    35.5350    20.3170 ca         1 IIM      -0.157500
     13 CB4         29.6420    36.5330    21.3080 ca         1 IIM       0.027000
     14 CB5         29.2150    36.1670    22.5950 ca         1 IIM      -0.157500
     15 CB6         28.7940    34.8480    22.8320 ca         1 IIM       0.338400
     16 NC1         31.0220    38.6000    21.7830 na         1 IIM      -0.276500
     17 CC2         31.2730    39.7710    21.1110 cc         1 IIM       0.465000
     18 NC3         30.5480    39.8360    20.0020 nd         1 IIM      -0.662000
     19 CC4         29.8120    38.6650    19.9350 cd         1 IIM       0.332500
     20 CC5         30.1160    37.8870    21.0360 cc         1 IIM      -0.148000
     21 CD1         27.6770    37.6150    19.0460 ca         1 IIM      -0.064000
     22 CD2         26.7060    37.4850    18.0370 ca         1 IIM      -0.158000
     23 CD3         26.8190    38.2260    16.8540 ca         1 IIM       0.175000
     24 CD4         27.8900    39.1110    16.6800 ca         1 IIM      -0.158000
     25 CD5         28.8610    39.2440    17.6880 ca         1 IIM      -0.064000
     26 CD6         28.7900    38.4730    18.8730 ca         1 IIM      -0.131500
     27 H2          34.3950    46.2070    24.0060 h1         1 IIM       0.079367
     28 H3          33.1900    45.5370    22.8480 h1         1 IIM       0.079367
     29 H4          33.3570    44.8180    24.4910 h1         1 IIM       0.079367
     30 H5          31.8660    42.1330    19.8780 ha         1 IIM       0.123500
     31 H6          33.4340    43.8820    20.6420 ha         1 IIM       0.131500
     32 H7          34.3760    41.5330    24.1400 ha         1 IIM       0.131500
     33 H8          32.8170    39.7760    23.3970 ha         1 IIM       0.123500
     34 H9          29.2190    33.4530    19.8840 h4         1 IIM       0.022600
     35 H10         30.0040    35.7530    19.3110 ha         1 IIM       0.128500
     36 H11         29.1970    36.8920    23.4030 ha         1 IIM       0.128500
     37 H12         28.4510    34.5450    23.8200 h4         1 IIM       0.022600
     38 H13         31.4620    38.3110    22.6460 hn         1 IIM       0.358000
     39 H15         27.5290    37.0680    19.9710 ha         1 IIM       0.127000
     40 H16         25.8580    36.8200    18.1790 ha         1 IIM       0.133000
     41 H17         27.9660    39.6960    15.7680 ha         1 IIM       0.133000
     42 H18         29.6850    39.9390    17.5330 ha         1 IIM       0.127000
     43 FD3         25.8830    38.1020    15.8890 f          1 IIM      -0.179000
@<TRIPOS>BOND
     1     1     3 2   
     2     2     3 1   
     3     2    27 1   
     4     2    28 1   
     5     2    29 1   
     6     3     6 1   
     7     4     5 ar  
     8     4     9 ar  
     9     4    30 1   
    10     5     6 ar  
    11     5    31 1   
    12     6     7 ar  
    13     7     8 ar  
    14     7    32 1   
    15     8     9 ar  
    16     8    33 1   
    17     9    17 1   
    18    10    11 ar  
    19    10    15 ar  
    20    11    12 ar  
    21    11    34 1   
    22    12    13 ar  
    23    12    35 1   
    24    13    14 ar  
    25    13    20 1   
    26    14    15 ar  
    27    14    36 1   
    28    15    37 1   
    29    16    17 1   
    30    16    20 1   
    31    16    38 1   
    32    17    18 2   
    33    18    19 1   
    34    19    20 2   
    35    19    26 1   
    36    21    22 ar  
    37    21    26 ar  
    38    21    39 1   
    39    22    23 ar  
    40    22    40 1   
    41    23    24 ar  
    42    23    43 1   
    43    24    25 ar  
    44    24    41 1   
    45    25    26 ar  
    46    25    42 1   
@<TRIPOS>SUBSTRUCTURE
     1 IIM         1 TEMP              0 ****  ****    0 ROOT
