@<TRIPOS>MOLECULE
IIN
   32    34     1     0     0
SMALL
No Charge or Current Charge


@<TRIPOS>ATOM
      1 C1           1.5760     0.1320     1.4630 c          1 IIN       0.582600
      2 O1           2.5840     0.5610     2.0080 o          1 IIN      -0.541000
      3 N2           1.5220    -0.5580     0.2440 n          1 IIN      -0.453800
      4 C3           0.1460    -0.9170    -0.1570 c5         1 IIN       0.445200
      5 C3A         -0.6410    -0.3570     1.0260 ca         1 IIN      -0.076300
      6 C4          -2.0300    -0.3810     1.2340 ca         1 IIN      -0.074000
      7 C5          -2.5510     0.2130     2.4030 ca         1 IIN      -0.095000
      8 C6          -1.6890     0.8230     3.3430 ca         1 IIN      -0.118000
      9 C7          -0.2970     0.8450     3.1220 ca         1 IIN      -0.044000
     10 C7A          0.1910     0.2440     1.9520 ca         1 IIN      -0.160600
     11 CM2          2.7430    -0.8050    -0.5450 c3         1 IIN       0.090300
     12 N3          -0.0090    -2.3520    -0.2020 n8         1 IIN      -1.008200
     13 C8          -0.1500    -0.2130    -1.4970 ca         1 IIN      -0.095300
     14 C2          -0.1380     1.2000    -1.5560 ca         1 IIN      -0.088000
     15 C9          -0.3990     1.8800    -2.7580 ca         1 IIN      -0.117500
     16 C10         -0.6790     1.1580    -3.9270 ca         1 IIN      -0.101000
     17 C11         -0.6970    -0.2440    -3.8910 ca         1 IIN      -0.117500
     18 C12         -0.4360    -0.9250    -2.6890 ca         1 IIN      -0.088000
     19 H4          -2.6900    -0.8500     0.5070 ha         1 IIN       0.131000
     20 H5          -3.6250     0.2030     2.5810 ha         1 IIN       0.116000
     21 H6          -2.1000     1.2800     4.2410 ha         1 IIN       0.118000
     22 H7           0.3780     1.3140     3.8350 ha         1 IIN       0.134000
     23 HM21         3.2310     0.1500    -0.7790 h1         1 IIN       0.043367
     24 HM22         3.4360    -1.4330     0.0310 h1         1 IIN       0.043367
     25 HM23         2.4930    -1.3150    -1.4840 h1         1 IIN       0.043367
     26 HN31         0.7060    -2.7100    -0.8380 hn         1 IIN       0.419500
     27 HN32         0.2840    -2.7110     0.7090 hn         1 IIN       0.419500
     28 H2           0.0780     1.7800    -0.6610 ha         1 IIN       0.126000
     29 H3          -0.3840     2.9670    -2.7810 ha         1 IIN       0.114000
     30 H1          -0.8810     1.6830    -4.8590 ha         1 IIN       0.113000
     31 H8          -0.9150    -0.8070    -4.7960 ha         1 IIN       0.114000
     32 H9          -0.4620    -2.0120    -2.6970 ha         1 IIN       0.126000
@<TRIPOS>BOND
     1     1     2 2   
     2     1     3 1   
     3     1    10 1   
     4     3     4 1   
     5     3    11 1   
     6     4     5 1   
     7     4    12 1   
     8     4    13 1   
     9     5     6 ar  
    10     5    10 ar  
    11     6     7 ar  
    12     6    19 1   
    13     7     8 ar  
    14     7    20 1   
    15     8     9 ar  
    16     8    21 1   
    17     9    10 ar  
    18     9    22 1   
    19    11    23 1   
    20    11    24 1   
    21    11    25 1   
    22    12    26 1   
    23    12    27 1   
    24    13    14 ar  
    25    13    18 ar  
    26    14    15 ar  
    27    14    28 1   
    28    15    16 ar  
    29    15    29 1   
    30    16    17 ar  
    31    16    30 1   
    32    17    18 ar  
    33    17    31 1   
    34    18    32 1   
@<TRIPOS>SUBSTRUCTURE
     1 IIN         1 TEMP              0 ****  ****    0 ROOT
