@<TRIPOS>MOLECULE
IIN
   32    34     1     0     0
SMALL
abcg2


@<TRIPOS>ATOM
      1 C1           1.5690     0.3020     1.5050 c          1 IIN       0.582600
      2 O1           2.5070     0.7820     2.1180 o          1 IIN      -0.541000
      3 N2           1.6250    -0.3570     0.3240 n          1 IIN      -0.453800
      4 C3           0.3260    -0.8570    -0.1530 c5         1 IIN       0.445200
      5 C3A         -0.5880    -0.3700     0.9500 ca         1 IIN      -0.076300
      6 C4          -1.9530    -0.5360     1.0840 ca         1 IIN      -0.074000
      7 C5          -2.5660     0.0180     2.2030 ca         1 IIN      -0.095000
      8 C6          -1.8280     0.7160     3.1590 ca         1 IIN      -0.118000
      9 C7          -0.4560     0.8720     3.0180 ca         1 IIN      -0.044000
     10 C7A          0.1430     0.3160     1.9000 ca         1 IIN      -0.160600
     11 CM2          2.8420    -0.6600    -0.3800 c3         1 IIN       0.090300
     12 N3           0.2440    -2.2840    -0.2730 n8         1 IIN      -1.008200
     13 C8          -0.0580    -0.1890    -1.4700 ca         1 IIN      -0.095300
     14 C2           0.3380     1.1190    -1.7400 ca         1 IIN      -0.088000
     15 C9          -0.0570     1.7510    -2.9100 ca         1 IIN      -0.117500
     16 C10         -0.8580     1.0850    -3.8290 ca         1 IIN      -0.101000
     17 C11         -1.2590    -0.2160    -3.5650 ca         1 IIN      -0.117500
     18 C12         -0.8630    -0.8490    -2.3930 ca         1 IIN      -0.088000
     19 H4          -2.5300    -1.0750     0.3440 ha         1 IIN       0.131000
     20 H5          -3.6340    -0.0950     2.3370 ha         1 IIN       0.116000
     21 H6          -2.3330     1.1370     4.0180 ha         1 IIN       0.118000
     22 H7           0.1250     1.4050     3.7600 ha         1 IIN       0.134000
     23 HM21         3.6670    -0.1170     0.0740 h1         1 IIN       0.043367
     24 HM22         3.0700    -1.7270    -0.3420 h1         1 IIN       0.043367
     25 HM23         2.7670    -0.3610    -1.4260 h1         1 IIN       0.043367
     26 HN31         0.8800    -2.6330    -0.9810 hn         1 IIN       0.419500
     27 HN32         0.4830    -2.7320     0.6030 hn         1 IIN       0.419500
     28 H2           0.9630     1.6570    -1.0390 ha         1 IIN       0.126000
     29 H3           0.2650     2.7660    -3.1030 ha         1 IIN       0.114000
     30 H1          -1.1660     1.5780    -4.7420 ha         1 IIN       0.113000
     31 H8          -1.8840    -0.7450    -4.2730 ha         1 IIN       0.114000
     32 H9          -1.1880    -1.8610    -2.1950 ha         1 IIN       0.126000
@<TRIPOS>BOND
     1     1     2 2   
     2     1     3 1   
     3     1    10 1   
     4     3     4 1   
     5     3    11 1   
     6     4     5 1   
     7     4    12 1   
     8     4    13 1   
     9     5     6 ar  
    10     5    10 ar  
    11     6     7 ar  
    12     6    19 1   
    13     7     8 ar  
    14     7    20 1   
    15     8     9 ar  
    16     8    21 1   
    17     9    10 ar  
    18     9    22 1   
    19    11    23 1   
    20    11    24 1   
    21    11    25 1   
    22    12    26 1   
    23    12    27 1   
    24    13    14 ar  
    25    13    18 ar  
    26    14    15 ar  
    27    14    28 1   
    28    15    16 ar  
    29    15    29 1   
    30    16    17 ar  
    31    16    30 1   
    32    17    18 ar  
    33    17    31 1   
    34    18    32 1   
@<TRIPOS>SUBSTRUCTURE
     1 IIN         1 TEMP              0 ****  ****    0 ROOT
