@<TRIPOS>MOLECULE
IIP
   88    91     1     0     0
SMALL
No Charge or Current Charge


@<TRIPOS>ATOM
      1 C            3.2300     3.6110     6.2190 cc         1 IIP       0.368900
      2 C1           6.1140    -0.8290     9.5320 cc         1 IIP      -0.173000
      3 C2           2.3450     4.4080     6.8790 cd         1 IIP      -0.216000
      4 C3           1.5760     4.4770     9.3000 c3         1 IIP       0.063900
      5 C4           3.2790     2.8760     8.2320 cd         1 IIP       0.347000
      6 C5           3.6450     2.0450     9.4460 c          1 IIP       0.543600
      7 C6           5.1690     0.1140     9.9640 cc         1 IIP      -0.019400
      8 C8           4.9420    -0.0740    11.2990 cd         1 IIP      -0.171000
      9 C10          6.4900    -1.6200    10.5950 cd         1 IIP      -0.236600
     10 C11          7.4740    -2.7430    10.5620 c          1 IIP       0.647700
     11 C12          8.9550    -3.8900     8.9000 cc         1 IIP      -0.011400
     12 C13          9.4370    -4.0040     7.5880 cc         1 IIP      -0.182000
     13 C14          9.5590    -4.8450     9.6710 cd         1 IIP      -0.166000
     14 C16         10.3490    -5.0330     7.5230 cd         1 IIP      -0.244600
     15 C18         10.7930    -6.1130    -0.7010 c3         1 IIP       0.104000
     16 C19         11.7270    -4.9670    -1.1320 c3         1 IIP      -0.130400
     17 C20         12.0470    -4.9180    -2.6430 c3         1 IIP       0.114600
     18 C21         13.9290    -6.6580    -2.3760 c3         1 IIP       0.076400
     19 C22         11.7840    -7.2850    -3.6210 c3         1 IIP       0.076400
     20 C23         11.0920    -5.4820     6.3110 c          1 IIP       0.644700
     21 C25          3.8010     4.1860     2.5640 cc         1 IIP       0.332000
     22 C26          5.0560     3.2540     1.0440 cd         1 IIP       0.230900
     23 C27          4.3790     4.2510     0.4000 cc         1 IIP      -0.211000
     24 C29         11.3590    -4.9960     3.8540 c3         1 IIP       0.116000
     25 C30         10.6820    -6.1860     3.1510 c3         1 IIP      -0.186400
     26 C31         11.2660    -6.3840     1.7560 c          1 IIP       0.606100
     27 O1           3.1780     2.2020    10.5730 o          1 IIP      -0.610100
     28 O2           7.7650    -3.4100    11.5460 o          1 IIP      -0.612100
     29 O3          11.8950    -6.4030     6.3010 o          1 IIP      -0.611100
     30 O5          12.3760    -6.8600     1.5710 o          1 IIP      -0.629100
     31 N            2.3700     3.9400     8.1830 na         1 IIP      -0.113500
     32 N1           4.5820     1.0670     9.1420 ns         1 IIP      -0.358100
     33 N2           3.8050     2.6810     7.0130 nc         1 IIP      -0.709000
     34 N3           5.7540    -1.1440    11.6960 na         1 IIP       0.067000
     35 N4           8.0190    -2.9500     9.3090 ns         1 IIP      -0.375100
     36 N5          10.4220    -5.5550     8.8270 na         1 IIP       0.067000
     37 N6          10.4380    -6.0220     0.7170 ns         1 IIP      -0.510900
     38 N7          12.7510    -6.1540    -3.2280 nx         1 IIP      -0.672000
     39 N8           3.5870     3.6450     4.9000 ns         1 IIP      -0.441400
     40 N9           3.5830     4.8440     1.3580 na         1 IIP      -0.120500
     41 N10          4.7020     3.2130     2.3750 nd         1 IIP      -0.668000
     42 N11         10.7930    -4.7550     5.1830 ns         1 IIP      -0.508900
     43 H1           6.4690    -0.8920     8.5070 ha         1 IIP       0.130000
     44 H2           1.7300     5.2310     6.5400 h4         1 IIP       0.188000
     45 H31          2.2470     4.8370    10.0910 h1         1 IIP       0.066700
     46 H32          0.9550     5.3110     8.9510 h1         1 IIP       0.066700
     47 H33          0.9270     3.6910     9.7040 h1         1 IIP       0.066700
     48 H8           4.2890     0.4470    11.9880 h4         1 IIP       0.179000
     49 H91          5.5150    -2.7280    13.0660 h1         1 IIP       0.063367
     50 H92          6.8350    -1.5820    13.4520 h1         1 IIP       0.063367
     51 H93          5.1320    -1.1070    13.7150 h1         1 IIP       0.063367
     52 H13          9.1160    -3.3610     6.7730 ha         1 IIP       0.124000
     53 H14          9.4540    -5.0780    10.7240 h4         1 IIP       0.183000
     54 H151        12.3210    -6.4310     9.0810 h1         1 IIP       0.063033
     55 H152        11.1190    -6.8660    10.3300 h1         1 IIP       0.063033
     56 H153        11.0010    -7.5770     8.6950 h1         1 IIP       0.063033
     57 H181         9.8710    -6.0840    -1.2980 h1         1 IIP       0.061200
     58 H182        11.2840    -7.0780    -0.8750 h1         1 IIP       0.061200
     59 H191        11.2570    -4.0140    -0.8590 hc         1 IIP       0.083700
     60 H192        12.6610    -5.0200    -0.5620 hc         1 IIP       0.083700
     61 H201        11.1220    -4.7500    -3.2020 hx         1 IIP       0.093200
     62 H202        12.6940    -4.0530    -2.8140 hx         1 IIP       0.093200
     63 H211        14.4480    -7.4660    -2.8990 hx         1 IIP       0.104200
     64 H212        14.6300    -5.8400    -2.1910 hx         1 IIP       0.104200
     65 H213        13.5560    -7.0330    -1.4200 hx         1 IIP       0.104200
     66 H221        12.3280    -8.0640    -4.1600 hx         1 IIP       0.104200
     67 H222        11.3340    -7.7230    -2.7290 hx         1 IIP       0.104200
     68 H223        10.9940    -6.8900    -4.2650 hx         1 IIP       0.104200
     69 H26          5.7780     2.5630     0.6250 h4         1 IIP       0.042100
     70 H27          4.4070     4.5680    -0.6350 h4         1 IIP       0.162000
     71 H281         2.7130     6.2810     0.0720 h1         1 IIP       0.066033
     72 H282         1.6430     5.6780     1.3690 h1         1 IIP       0.066033
     73 H283         2.9630     6.8240     1.7550 h1         1 IIP       0.066033
     74 H291        12.4370    -5.1820     3.9510 h1         1 IIP       0.061200
     75 H292        11.2270    -4.0880     3.2490 h1         1 IIP       0.061200
     76 H301        10.8660    -7.0920     3.7390 hc         1 IIP       0.081700
     77 H302         9.6060    -5.9910     3.0890 hc         1 IIP       0.081700
     78 HN1          4.8530     1.0860     8.1630 hn         1 IIP       0.350500
     79 HN4          7.6680    -2.3100     8.6120 hn         1 IIP       0.325500
     80 HN6          9.5270    -5.6530     0.9660 hn         1 IIP       0.333500
     81 HN7         13.1730    -5.8290    -4.1320 hn         1 IIP       0.495000
     82 HN8          4.2690     2.9630     4.5940 hn         1 IIP       0.362500
     83 H11         10.1210    -4.0080     5.2980 hn         1 IIP       0.322500
     84 C9           5.8130    -1.6730    13.0670 c3         1 IIP       0.060900
     85 C24          3.1510     4.4860     3.8960 c          1 IIP       0.547600
     86 C15         11.2680    -6.6770     9.2610 c3         1 IIP       0.060900
     87 C28          2.6700     5.9760     1.1240 c3         1 IIP       0.062900
     88 O4           2.3240     5.3720     4.0930 o          1 IIP      -0.608100
@<TRIPOS>BOND
     1     1     3 2   
     2     1    33 1   
     3     1    39 1   
     4     2     7 1   
     5     2     9 2   
     6     2    43 1   
     7     3    31 1   
     8     3    44 1   
     9     4    31 1   
    10     4    45 1   
    11     4    46 1   
    12     4    47 1   
    13     5     6 1   
    14     5    31 1   
    15     5    33 2   
    16     6    27 2   
    17     6    32 1   
    18     7     8 2   
    19     7    32 1   
    20     8    34 1   
    21     8    48 1   
    22     9    10 1   
    23     9    34 1   
    24    10    28 2   
    25    10    35 1   
    26    11    12 1   
    27    11    13 2   
    28    11    35 1   
    29    12    14 2   
    30    12    52 1   
    31    13    36 1   
    32    13    53 1   
    33    14    20 1   
    34    14    36 1   
    35    15    16 1   
    36    15    37 1   
    37    15    57 1   
    38    15    58 1   
    39    16    17 1   
    40    16    59 1   
    41    16    60 1   
    42    17    38 1   
    43    17    61 1   
    44    17    62 1   
    45    18    38 1   
    46    18    63 1   
    47    18    64 1   
    48    18    65 1   
    49    19    38 1   
    50    19    66 1   
    51    19    67 1   
    52    19    68 1   
    53    20    29 2   
    54    20    42 1   
    55    21    40 1   
    56    21    41 2   
    57    21    85 1   
    58    22    23 2   
    59    22    41 1   
    60    22    69 1   
    61    23    40 1   
    62    23    70 1   
    63    24    25 1   
    64    24    42 1   
    65    24    74 1   
    66    24    75 1   
    67    25    26 1   
    68    25    76 1   
    69    25    77 1   
    70    26    30 2   
    71    26    37 1   
    72    32    78 1   
    73    34    84 1   
    74    35    79 1   
    75    36    86 1   
    76    37    80 1   
    77    38    81 1   
    78    39    82 1   
    79    39    85 1   
    80    40    87 1   
    81    42    83 1   
    82    49    84 1   
    83    50    84 1   
    84    51    84 1   
    85    54    86 1   
    86    55    86 1   
    87    56    86 1   
    88    71    87 1   
    89    72    87 1   
    90    73    87 1   
    91    85    88 2   
@<TRIPOS>SUBSTRUCTURE
     1 IIP         1 TEMP              0 ****  ****    0 ROOT
