@<TRIPOS>MOLECULE
IIP
   88    91     1     0     0
SMALL
abcg2


@<TRIPOS>ATOM
      1 C            2.5300     3.9960     6.6380 cc         1 IIP       0.368900
      2 C1           6.1370    -0.6220     8.9340 cc         1 IIP      -0.173000
      3 C2           2.0310     4.8210     7.6280 cd         1 IIP      -0.216000
      4 C3           2.2050     4.8690    10.1210 c3         1 IIP       0.063900
      5 C4           3.2350     3.2000     8.5020 cd         1 IIP       0.347000
      6 C5           3.9190     2.3420     9.4890 c          1 IIP       0.543600
      7 C6           5.3890     0.3800     9.5850 cc         1 IIP      -0.019400
      8 C8           5.5540     0.1980    10.9520 cd         1 IIP      -0.171000
      9 C10          6.7430    -1.3940     9.9180 cd         1 IIP      -0.236600
     10 C11          7.5990    -2.5780     9.7770 c          1 IIP       0.647700
     11 C12          8.8990    -3.8320     8.1050 cc         1 IIP      -0.011400
     12 C13          9.4020    -3.9620     6.7920 cc         1 IIP      -0.182000
     13 C14          9.2860    -4.9640     8.8090 cd         1 IIP      -0.166000
     14 C16         10.0770    -5.1750     6.7250 cd         1 IIP      -0.244600
     15 C18         11.8590    -5.5370    -1.2710 c3         1 IIP       0.104000
     16 C19         13.3830    -5.6730    -1.1610 c3         1 IIP      -0.130400
     17 C20         14.0340    -6.2850    -2.3970 c3         1 IIP       0.114600
     18 C21         15.3620    -8.1230    -1.3230 c3         1 IIP       0.076400
     19 C22         13.0410    -8.5720    -2.0300 c3         1 IIP       0.076400
     20 C23         10.7340    -5.8050     5.5700 c          1 IIP       0.644700
     21 C25          1.7280     4.8030     3.1170 cc         1 IIP       0.332000
     22 C26          2.1510     3.9680     1.1820 cd         1 IIP       0.230900
     23 C27          1.3970     5.0990     0.9700 cc         1 IIP      -0.211000
     24 C29         11.6110    -5.3960     3.3040 c3         1 IIP       0.116000
     25 C30         10.4820    -5.5540     2.2710 c3         1 IIP      -0.186400
     26 C31         11.0330    -6.0880     0.9670 c          1 IIP       0.606100
     27 O1           3.8410     2.5260    10.7040 o          1 IIP      -0.610100
     28 O2           7.8090    -3.3730    10.6980 o          1 IIP      -0.612100
     29 O3          10.9220    -7.0240     5.4930 o          1 IIP      -0.611100
     30 O5          11.3010    -7.2850     0.8210 o          1 IIP      -0.629100
     31 N            2.4930     4.2970     8.8090 na         1 IIP      -0.113500
     32 N1           4.6350     1.3450     8.9170 ns         1 IIP      -0.358100
     33 N2           3.2690     2.9990     7.1860 nc         1 IIP      -0.709000
     34 N3           6.3700    -0.8810    11.1410 na         1 IIP       0.067000
     35 N4           8.1410    -2.7420     8.5390 ns         1 IIP      -0.375100
     36 N5           9.9920    -5.7710     7.9610 na         1 IIP       0.067000
     37 N6          11.2500    -5.1800    -0.0030 ns         1 IIP      -0.510900
     38 N7          14.2800    -7.7780    -2.2960 nx         1 IIP      -0.672000
     39 N8           2.3820     4.0570     5.2600 ns         1 IIP      -0.441400
     40 N9           1.1320     5.6240     2.2030 na         1 IIP      -0.120500
     41 N10          2.3520     3.7940     2.5180 nd         1 IIP      -0.668000
     42 N11         11.1180    -4.9500     4.5910 ns         1 IIP      -0.508900
     43 H1           6.1970    -0.7710     7.8670 ha         1 IIP       0.130000
     44 H2           1.4170     5.6990     7.5930 h4         1 IIP       0.188000
     45 H31          3.1310     5.1220    10.6310 h1         1 IIP       0.066700
     46 H32          1.6110     5.7660     9.9680 h1         1 IIP       0.066700
     47 H33          1.6480     4.1580    10.7270 h1         1 IIP       0.066700
     48 H8           5.1630     0.7520    11.7830 h4         1 IIP       0.179000
     49 H91          6.3480    -2.3180    12.6800 h1         1 IIP       0.063367
     50 H92          7.8590    -1.4110    12.5250 h1         1 IIP       0.063367
     51 H93          6.4170    -0.6160    13.1900 h1         1 IIP       0.063367
     52 H13          9.2510    -3.2640     5.9850 ha         1 IIP       0.124000
     53 H14          9.1230    -5.2400     9.8330 h4         1 IIP       0.183000
     54 H151        11.6230    -7.0880     8.0830 h1         1 IIP       0.063033
     55 H152        10.5070    -7.0970     9.4630 h1         1 IIP       0.063033
     56 H153        10.0470    -7.8770     7.9330 h1         1 IIP       0.063033
     57 H181        11.6050    -4.7650    -1.9970 h1         1 IIP       0.061200
     58 H182        11.4090    -6.4680    -1.6110 h1         1 IIP       0.061200
     59 H191        13.8130    -4.6820    -1.0100 hc         1 IIP       0.083700
     60 H192        13.6290    -6.2490    -0.2690 hc         1 IIP       0.083700
     61 H201        13.4180    -6.1470    -3.2850 hx         1 IIP       0.093200
     62 H202        15.0120    -5.8500    -2.5890 hx         1 IIP       0.093200
     63 H211        15.5620    -9.1880    -1.4070 hx         1 IIP       0.104200
     64 H212        16.2480    -7.5480    -1.5740 hx         1 IIP       0.104200
     65 H213        15.0240    -7.8870    -0.3180 hx         1 IIP       0.104200
     66 H221        13.3030    -9.6260    -2.0730 hx         1 IIP       0.104200
     67 H222        12.6630    -8.3160    -1.0440 hx         1 IIP       0.104200
     68 H223        12.3080    -8.3340    -2.7960 hx         1 IIP       0.104200
     69 H26          2.5490     3.2870     0.4470 h4         1 IIP       0.042100
     70 H27          1.0320     5.5660     0.0710 h4         1 IIP       0.162000
     71 H281         0.0440     7.2260     1.4710 h1         1 IIP       0.066033
     72 H282        -0.5190     6.6150     3.0430 h1         1 IIP       0.066033
     73 H283         0.9640     7.5790     2.9520 h1         1 IIP       0.066033
     74 H291        12.1180    -6.3480     3.4440 h1         1 IIP       0.061200
     75 H292        12.3410    -4.6680     2.9480 h1         1 IIP       0.061200
     76 H301         9.7510    -6.2720     2.6460 hc         1 IIP       0.081700
     77 H302         9.9840    -4.5940     2.1270 hc         1 IIP       0.081700
     78 HN1          4.6210     1.3070     7.9070 hn         1 IIP       0.350500
     79 HN4          7.9870    -2.0150     7.8570 hn         1 IIP       0.325500
     80 HN6         11.0370    -4.2120     0.1780 hn         1 IIP       0.333500
     81 HN7         14.6180    -8.0590    -3.2180 hn         1 IIP       0.495000
     82 HN8          2.8350     3.3330     4.7170 hn         1 IIP       0.362500
     83 H11         10.9550    -3.9640     4.7170 hn         1 IIP       0.322500
     84 C9           6.7750    -1.3410    12.4630 c3         1 IIP       0.060900
     85 C24          1.6920     5.0060     4.5760 c          1 IIP       0.547600
     86 C15         10.5780    -7.0380     8.3800 c3         1 IIP       0.060900
     87 C28          0.3560     6.8390     2.4380 c3         1 IIP       0.062900
     88 O4           1.1000     5.9380     5.1170 o          1 IIP      -0.608100
@<TRIPOS>BOND
     1     1     3 2   
     2     1    33 1   
     3     1    39 1   
     4     2     7 1   
     5     2     9 2   
     6     2    43 1   
     7     3    31 1   
     8     3    44 1   
     9     4    31 1   
    10     4    45 1   
    11     4    46 1   
    12     4    47 1   
    13     5     6 1   
    14     5    31 1   
    15     5    33 2   
    16     6    27 2   
    17     6    32 1   
    18     7     8 2   
    19     7    32 1   
    20     8    34 1   
    21     8    48 1   
    22     9    10 1   
    23     9    34 1   
    24    10    28 2   
    25    10    35 1   
    26    11    12 1   
    27    11    13 2   
    28    11    35 1   
    29    12    14 2   
    30    12    52 1   
    31    13    36 1   
    32    13    53 1   
    33    14    20 1   
    34    14    36 1   
    35    15    16 1   
    36    15    37 1   
    37    15    57 1   
    38    15    58 1   
    39    16    17 1   
    40    16    59 1   
    41    16    60 1   
    42    17    38 1   
    43    17    61 1   
    44    17    62 1   
    45    18    38 1   
    46    18    63 1   
    47    18    64 1   
    48    18    65 1   
    49    19    38 1   
    50    19    66 1   
    51    19    67 1   
    52    19    68 1   
    53    20    29 2   
    54    20    42 1   
    55    21    40 1   
    56    21    41 2   
    57    21    85 1   
    58    22    23 2   
    59    22    41 1   
    60    22    69 1   
    61    23    40 1   
    62    23    70 1   
    63    24    25 1   
    64    24    42 1   
    65    24    74 1   
    66    24    75 1   
    67    25    26 1   
    68    25    76 1   
    69    25    77 1   
    70    26    30 2   
    71    26    37 1   
    72    32    78 1   
    73    34    84 1   
    74    35    79 1   
    75    36    86 1   
    76    37    80 1   
    77    38    81 1   
    78    39    82 1   
    79    39    85 1   
    80    40    87 1   
    81    42    83 1   
    82    49    84 1   
    83    50    84 1   
    84    51    84 1   
    85    54    86 1   
    86    55    86 1   
    87    56    86 1   
    88    71    87 1   
    89    72    87 1   
    90    73    87 1   
    91    85    88 2   
@<TRIPOS>SUBSTRUCTURE
     1 IIP         1 TEMP              0 ****  ****    0 ROOT
