@<TRIPOS>MOLECULE
IIQ
   52    54     1     0     0
SMALL
No Charge or Current Charge


@<TRIPOS>ATOM
      1 CBA        201.5380    12.6960   147.9730 c3         1 IIQ      -0.093100
      2 CAV        201.0150    11.2550   148.1540 c3         1 IIQ      -0.096400
      3 CAU        202.0930    10.2410   148.6000 c3         1 IIQ       0.071600
      4 NAG        203.1640    10.0430   147.6050 na         1 IIQ      -0.074700
      5 CAH        203.1160     9.2140   146.4680 cc         1 IIQ      -0.063100
      6 CAD        204.3920    10.6930   147.6780 ca         1 IIQ      -0.077200
      7 CAC        204.8900    11.6110   148.6140 ca         1 IIQ      -0.087000
      8 CAB        206.1970    12.0910   148.3810 ca         1 IIQ      -0.102000
      9 CAA        206.9320    11.6430   147.2460 ca         1 IIQ       0.238500
     10 CAJ        208.3360    12.1610   146.9980 c          1 IIQ       0.484400
     11 OBB        208.9180    12.9670   147.7230 o          1 IIQ      -0.511100
     12 NAF        206.4090    10.7480   146.3540 nb         1 IIQ      -0.623000
     13 CAE        205.1620    10.3130   146.6100 ca         1 IIQ       0.355800
     14 CAI        204.3570     9.3830   145.8540 cd         1 IIQ      -0.348000
     15 CAK        204.7210     8.6770   144.6040 c          1 IIQ       0.665300
     16 OAL        203.9500     7.9050   144.0500 o          1 IIQ      -0.594100
     17 NAM        205.9790     8.9540   144.1410 ns         1 IIQ      -0.314900
     18 CAN        206.6630     8.5130   143.0100 ca         1 IIQ       0.537900
     19 CAO        206.1040     7.8300   141.9280 ca         1 IIQ      -0.274000
     20 NAS        207.9620     8.8390   143.0800 nb         1 IIQ      -0.769000
     21 CAR        208.7570     8.4780   142.0510 ca         1 IIQ       0.452900
     22 CAQ        208.2880     7.7920   140.9300 ca         1 IIQ      -0.228000
     23 CBC        209.2060     7.4630   139.8880 cg         1 IIQ       0.346000
     24 NBD        209.9510     7.1840   139.0350 n1         1 IIQ      -0.491000
     25 CAP        206.9280     7.4700   140.8660 ca         1 IIQ       0.447000
     26 NAT        206.3870     6.7910   139.7720 nu         1 IIQ      -0.956200
     27 CAW        205.1280     7.1610   139.0750 c3         1 IIQ       0.225800
     28 CAX        205.2050     8.5450   138.3700 c3         1 IIQ       0.132600
     29 OAY        205.3020     9.5890   139.3600 os         1 IIQ      -0.440000
     30 CAZ        205.4080    10.9160   138.8210 c3         1 IIQ       0.145900
     31 H1         200.7170    13.3690   147.6990 hc         1 IIQ       0.041367
     32 H2         201.9870    13.0670   148.9030 hc         1 IIQ       0.041367
     33 H3         202.2940    12.7430   147.1790 hc         1 IIQ       0.041367
     34 H4         200.2130    11.2640   148.9030 hc         1 IIQ       0.054200
     35 H5         200.5630    10.9150   147.2150 hc         1 IIQ       0.054200
     36 H6         201.6110     9.2700   148.7730 h1         1 IIQ       0.064200
     37 H7         202.5280    10.5570   149.5550 h1         1 IIQ       0.064200
     38 H8         202.2530     8.6080   146.2040 h4         1 IIQ       0.236000
     39 H9         204.3120    11.9430   149.4720 ha         1 IIQ       0.127000
     40 H10        206.6410    12.8050   149.0700 ha         1 IIQ       0.144000
     41 H11        208.8360    11.7580   146.0880 h4         1 IIQ       0.023200
     42 H14        206.5150     9.5840   144.7200 hn         1 IIQ       0.201000
     43 H15        205.0510     7.5910   141.8980 ha         1 IIQ       0.164000
     44 H16        209.8080     8.7560   142.1390 h4         1 IIQ       0.022100
     45 H17        207.0940     6.3600   139.1720 hn         1 IIQ       0.495000
     46 H18        204.2810     7.1620   139.7740 h1         1 IIQ       0.063200
     47 H19        204.9040     6.4060   138.3080 h1         1 IIQ       0.063200
     48 H20        204.3020     8.6830   137.7610 h1         1 IIQ       0.026700
     49 H21        206.0740     8.5630   137.6980 h1         1 IIQ       0.026700
     50 H22        205.4770    11.6530   139.6310 h1         1 IIQ       0.029700
     51 H23        206.3050    11.0120   138.1950 h1         1 IIQ       0.029700
     52 H24        204.5290    11.1600   138.2100 h1         1 IIQ       0.029700
@<TRIPOS>BOND
     1     1     2 1   
     2     1    31 1   
     3     1    32 1   
     4     1    33 1   
     5     2     3 1   
     6     2    34 1   
     7     2    35 1   
     8     3     4 1   
     9     3    36 1   
    10     3    37 1   
    11     4     5 1   
    12     4     6 1   
    13     5    14 2   
    14     5    38 1   
    15     6     7 ar  
    16     6    13 ar  
    17     7     8 ar  
    18     7    39 1   
    19     8     9 ar  
    20     8    40 1   
    21     9    10 1   
    22     9    12 ar  
    23    10    11 2   
    24    10    41 1   
    25    12    13 ar  
    26    13    14 1   
    27    14    15 1   
    28    15    16 2   
    29    15    17 1   
    30    17    18 1   
    31    17    42 1   
    32    18    19 ar  
    33    18    20 ar  
    34    19    25 ar  
    35    19    43 1   
    36    20    21 ar  
    37    21    22 ar  
    38    21    44 1   
    39    22    23 1   
    40    22    25 ar  
    41    23    24 3   
    42    25    26 1   
    43    26    27 1   
    44    26    45 1   
    45    27    28 1   
    46    27    46 1   
    47    27    47 1   
    48    28    29 1   
    49    28    48 1   
    50    28    49 1   
    51    29    30 1   
    52    30    50 1   
    53    30    51 1   
    54    30    52 1   
@<TRIPOS>SUBSTRUCTURE
     1 IIQ         1 TEMP              0 ****  ****    0 ROOT
