@<TRIPOS>MOLECULE
IIQ
   52    54     1     0     0
SMALL
abcg2


@<TRIPOS>ATOM
      1 CBA        201.8610    12.9270   147.9650 c3         1 IIQ      -0.093100
      2 CAV        201.1040    11.6270   147.7390 c3         1 IIQ      -0.096400
      3 CAU        201.8940    10.3790   148.1110 c3         1 IIQ       0.071600
      4 NAG        203.1140    10.2220   147.3330 na         1 IIQ      -0.074700
      5 CAH        203.1680     9.7190   146.0750 cc         1 IIQ      -0.063100
      6 CAD        204.3700    10.6020   147.7110 ca         1 IIQ      -0.077200
      7 CAC        204.8650    11.1690   148.8760 ca         1 IIQ      -0.087000
      8 CAB        206.2230    11.4220   148.9020 ca         1 IIQ      -0.102000
      9 CAA        207.0180    11.1050   147.7920 ca         1 IIQ       0.238500
     10 CAJ        208.4710    11.3730   147.7870 c          1 IIQ       0.484400
     11 OBB        209.0720    11.8790   148.7030 o          1 IIQ      -0.511100
     12 NAF        206.5470    10.5570   146.6800 nb         1 IIQ      -0.623000
     13 CAE        205.2450    10.3120   146.6380 ca         1 IIQ       0.355800
     14 CAI        204.4530     9.7420   145.5920 cd         1 IIQ      -0.348000
     15 CAK        204.8610     9.2500   144.2740 c          1 IIQ       0.665300
     16 OAL        204.0610     8.7950   143.4740 o          1 IIQ      -0.594100
     17 NAM        206.2060     9.3520   144.0480 ns         1 IIQ      -0.314900
     18 CAN        206.9510     8.9540   142.9540 ca         1 IIQ       0.537900
     19 CAO        206.4210     8.3510   141.8250 ca         1 IIQ      -0.274000
     20 NAS        208.2570     9.2220   143.1210 nb         1 IIQ      -0.769000
     21 CAR        209.0690     8.8780   142.1500 ca         1 IIQ       0.452900
     22 CAQ        208.6630     8.2560   140.9730 ca         1 IIQ      -0.228000
     23 CBC        209.6240     7.9010   139.9970 cg         1 IIQ       0.346000
     24 NBD        210.3980     7.6010   139.1950 n1         1 IIQ      -0.491000
     25 CAP        207.2840     7.9730   140.7850 ca         1 IIQ       0.447000
     26 NAT        206.8670     7.3470   139.6750 nu         1 IIQ      -0.956200
     27 CAW        205.5080     6.9880   139.3420 c3         1 IIQ       0.225800
     28 CAX        204.7860     8.0300   138.5110 c3         1 IIQ       0.132600
     29 OAY        204.6540     9.2130   139.2490 os         1 IIQ      -0.440000
     30 CAZ        204.0170    10.2350   138.5280 c3         1 IIQ       0.145900
     31 H1         201.2270    13.7840   147.7360 hc         1 IIQ       0.041367
     32 H2         202.1850    13.0240   149.0020 hc         1 IIQ       0.041367
     33 H3         202.7440    12.9980   147.3290 hc         1 IIQ       0.041367
     34 H4         200.1930    11.6160   148.3410 hc         1 IIQ       0.054200
     35 H5         200.7850    11.5530   146.6960 hc         1 IIQ       0.054200
     36 H6         201.2880     9.4860   147.9600 h1         1 IIQ       0.064200
     37 H7         202.1710    10.3990   149.1650 h1         1 IIQ       0.064200
     38 H8         202.2710     9.3580   145.5950 h4         1 IIQ       0.236000
     39 H9         204.2350    11.4080   149.7220 ha         1 IIQ       0.127000
     40 H10        206.6780    11.8650   149.7770 ha         1 IIQ       0.144000
     41 H11        208.9740    11.0670   146.8530 h4         1 IIQ       0.023200
     42 H14        206.7670     9.7670   144.7900 hn         1 IIQ       0.201000
     43 H15        205.3610     8.1920   141.7460 ha         1 IIQ       0.164000
     44 H16        210.1220     9.0980   142.2930 h4         1 IIQ       0.022100
     45 H17        207.5500     7.1670   138.9550 hn         1 IIQ       0.495000
     46 H18        204.9480     6.7650   140.2510 h1         1 IIQ       0.063200
     47 H19        205.5430     6.0600   138.7690 h1         1 IIQ       0.063200
     48 H20        203.8050     7.6250   138.2220 h1         1 IIQ       0.026700
     49 H21        205.3440     8.2070   137.5790 h1         1 IIQ       0.026700
     50 H22        203.9580    11.1140   139.1690 h1         1 IIQ       0.029700
     51 H23        204.5710    10.5050   137.6200 h1         1 IIQ       0.029700
     52 H24        203.0000     9.9560   138.2290 h1         1 IIQ       0.029700
@<TRIPOS>BOND
     1     1     2 1   
     2     1    31 1   
     3     1    32 1   
     4     1    33 1   
     5     2     3 1   
     6     2    34 1   
     7     2    35 1   
     8     3     4 1   
     9     3    36 1   
    10     3    37 1   
    11     4     5 1   
    12     4     6 1   
    13     5    14 2   
    14     5    38 1   
    15     6     7 ar  
    16     6    13 ar  
    17     7     8 ar  
    18     7    39 1   
    19     8     9 ar  
    20     8    40 1   
    21     9    10 1   
    22     9    12 ar  
    23    10    11 2   
    24    10    41 1   
    25    12    13 ar  
    26    13    14 1   
    27    14    15 1   
    28    15    16 2   
    29    15    17 1   
    30    17    18 1   
    31    17    42 1   
    32    18    19 ar  
    33    18    20 ar  
    34    19    25 ar  
    35    19    43 1   
    36    20    21 ar  
    37    21    22 ar  
    38    21    44 1   
    39    22    23 1   
    40    22    25 ar  
    41    23    24 3   
    42    25    26 1   
    43    26    27 1   
    44    26    45 1   
    45    27    28 1   
    46    27    46 1   
    47    27    47 1   
    48    28    29 1   
    49    28    48 1   
    50    28    49 1   
    51    29    30 1   
    52    30    50 1   
    53    30    51 1   
    54    30    52 1   
@<TRIPOS>SUBSTRUCTURE
     1 IIQ         1 TEMP              0 ****  ****    0 ROOT
