@<TRIPOS>MOLECULE
IIR
   47    51     1     0     0
SMALL
No Charge or Current Charge


@<TRIPOS>ATOM
      1 C10         34.2540   -50.1690    -4.6820 ca         1 IIR      -0.114500
      2 C11         33.2110   -50.0920    -5.6220 ca         1 IIR      -0.093500
      3 C13         30.6640   -47.6430   -10.5230 cg         1 IIR      -0.145000
      4 C15         28.5490   -46.8480   -13.2980 cd         1 IIR      -0.154000
      5 C16         29.7800   -46.4040   -12.6820 cd         1 IIR       0.439000
      6 C18         28.8880   -45.1230   -14.8980 cc         1 IIR      -0.117000
      7 C20         30.6430   -43.7180   -14.8660 cc         1 IIR      -0.130300
      8 C21         29.7920   -43.4600   -15.9260 cd         1 IIR       0.112400
      9 C23         29.9810   -42.3900   -16.9490 cx         1 IIR      -0.072500
     10 C24         29.6860   -42.6470   -18.4100 cx         1 IIR      -0.111900
     11 C25         28.8010   -41.7170   -17.6140 cx         1 IIR      -0.111900
     12 C26         31.9300   -43.0550   -14.4560 c3         1 IIR       0.243800
     13 C28         30.2850   -47.0460   -11.5210 ch         1 IIR      -0.196000
     14 N1          30.3080   -49.4030    -8.7890 na         1 IIR      -0.140500
     15 C2          31.0250   -49.8440    -7.6970 cc         1 IIR      -0.202000
     16 C3          32.1590   -49.0660    -7.6630 cd         1 IIR       0.299500
     17 N4          32.1620   -48.1590    -8.7040 nd         1 IIR      -0.627000
     18 C5          31.0400   -48.3830    -9.3640 cc         1 IIR       0.507500
     19 C6          33.2560   -49.1470    -6.6720 ca         1 IIR      -0.106500
     20 C7          34.3710   -48.2820    -6.7550 ca         1 IIR      -0.093500
     21 C8          35.4120   -48.3610    -5.8140 ca         1 IIR      -0.114500
     22 C9          35.3540   -49.3040    -4.7760 ca         1 IIR      -0.108000
     23 C14         28.0990   -46.1990   -14.4210 cc         1 IIR      -0.022000
     24 N17         30.5450   -45.3900   -13.1130 nc         1 IIR      -0.431800
     25 N19         30.0370   -44.7750   -14.2420 na         1 IIR       0.254900
     26 N22         28.7080   -44.3330   -15.9380 nd         1 IIR      -0.274600
     27 O27         31.6680   -41.7910   -13.8370 oh         1 IIR      -0.649000
     28 H33         34.2060   -50.9010    -3.8780 ha         1 IIR       0.111500
     29 H34         32.3700   -50.7740    -5.5250 ha         1 IIR       0.119000
     30 H40         30.8360   -41.7510   -16.7400 hc         1 IIR       0.082700
     31 H41         30.3540   -42.2070   -19.1460 hc         1 IIR       0.076700
     32 H42         29.2800   -43.6170   -18.6880 hc         1 IIR       0.076700
     33 H44         27.8010   -42.0620   -17.3620 hc         1 IIR       0.076700
     34 H43         28.8740   -40.6510   -17.8160 hc         1 IIR       0.076700
     35 H45         32.4850   -43.7090   -13.7700 h1         1 IIR       0.036700
     36 H46         32.5560   -42.9190   -15.3490 h1         1 IIR       0.036700
     37 H29         30.6870   -50.6440    -7.0520 h4         1 IIR       0.162000
     38 H30         34.4380   -47.5430    -7.5510 ha         1 IIR       0.119000
     39 H31         36.2640   -47.6890    -5.8900 ha         1 IIR       0.111500
     40 H32         36.1600   -49.3640    -4.0480 ha         1 IIR       0.111000
     41 H38         27.1840   -46.4850   -14.9310 ha         1 IIR       0.149000
     42 H47         32.5390   -41.4200   -13.5740 ho         1 IIR       0.446000
     43 C12         29.0110   -49.9250    -9.2500 c3         1 IIR       0.055900
     44 H39         27.9940   -47.6800   -12.8800 ha         1 IIR       0.135000
     45 H37         29.1110   -50.3110   -10.2720 h1         1 IIR       0.059367
     46 H36         28.6790   -50.7360    -8.5900 h1         1 IIR       0.059367
     47 H35         28.2650   -49.1210    -9.2370 h1         1 IIR       0.059367
@<TRIPOS>BOND
     1     1     2 ar  
     2     1    22 ar  
     3     1    28 1   
     4     2    19 ar  
     5     2    29 1   
     6     3    13 3   
     7     3    18 1   
     8     4     5 1   
     9     4    23 2   
    10     4    44 1   
    11     5    13 1   
    12     5    24 2   
    13     6    23 1   
    14     6    25 1   
    15     6    26 2   
    16     7     8 2   
    17     7    12 1   
    18     7    25 1   
    19     8     9 1   
    20     8    26 1   
    21     9    10 1   
    22     9    11 1   
    23     9    30 1   
    24    10    11 1   
    25    10    31 1   
    26    10    32 1   
    27    11    33 1   
    28    11    34 1   
    29    12    27 1   
    30    12    35 1   
    31    12    36 1   
    32    14    15 1   
    33    14    18 1   
    34    14    43 1   
    35    15    16 2   
    36    15    37 1   
    37    16    17 1   
    38    16    19 1   
    39    17    18 2   
    40    19    20 ar  
    41    20    21 ar  
    42    20    38 1   
    43    21    22 ar  
    44    21    39 1   
    45    22    40 1   
    46    23    41 1   
    47    24    25 1   
    48    27    42 1   
    49    43    45 1   
    50    43    46 1   
    51    43    47 1   
@<TRIPOS>SUBSTRUCTURE
     1 IIR         1 TEMP              0 ****  ****    0 ROOT
