@<TRIPOS>MOLECULE
IIR
   47    51     1     0     0
SMALL
bcc


@<TRIPOS>ATOM
      1 C10         34.1700   -49.9600    -4.6720 ca         1 IIR      -0.132500
      2 C11         33.1310   -49.8890    -5.5870 ca         1 IIR      -0.111500
      3 C13         30.6030   -47.6150   -10.5210 cg         1 IIR      -0.145000
      4 C15         28.5580   -46.7750   -13.2790 cd         1 IIR      -0.237300
      5 C16         29.7690   -46.3470   -12.6650 cd         1 IIR       0.504300
      6 C18         28.9140   -45.0910   -14.9070 cc         1 IIR      -0.066300
      7 C20         30.6690   -43.7310   -14.8550 cc         1 IIR      -0.130300
      8 C21         29.8430   -43.4680   -15.9310 cd         1 IIR       0.112400
      9 C23         30.0350   -42.4400   -16.9610 cx         1 IIR      -0.072500
     10 C24         29.6780   -42.7450   -18.3920 cx         1 IIR      -0.111900
     11 C25         28.8370   -41.8000   -17.6070 cx         1 IIR      -0.111900
     12 C26         31.9240   -43.1120   -14.3700 c3         1 IIR       0.220600
     13 C28         30.2330   -47.0100   -11.4960 ch         1 IIR      -0.196000
     14 N1          30.3220   -49.3640    -8.8530 na         1 IIR      -0.161900
     15 C2          31.0200   -49.8040    -7.7800 cc         1 IIR      -0.234600
     16 C3          32.1430   -49.0080    -7.6940 cd         1 IIR       0.364800
     17 N4          32.1290   -48.0970    -8.7000 nd         1 IIR      -0.627000
     18 C5          31.0270   -48.3280    -9.3800 cc         1 IIR       0.507500
     19 C6          33.2310   -49.0770    -6.7190 ca         1 IIR      -0.106500
     20 C7          34.3960   -48.3320    -6.9040 ca         1 IIR      -0.111500
     21 C8          35.4340   -48.4030    -5.9870 ca         1 IIR      -0.132500
     22 C9          35.3270   -49.2170    -4.8670 ca         1 IIR      -0.126000
     23 C14         28.1310   -46.1440   -14.4080 cc         1 IIR      -0.040000
     24 N17         30.5080   -45.3620   -13.1120 nc         1 IIR      -0.431800
     25 N19         30.0640   -44.7700   -14.2050 na         1 IIR       0.204200
     26 N22         28.7790   -44.3090   -15.9550 nd         1 IIR      -0.274600
     27 O27         31.6470   -42.3410   -13.2190 oh         1 IIR      -0.586800
     28 H33         34.0720   -50.5950    -3.8010 ha         1 IIR       0.129500
     29 H34         32.2330   -50.4690    -5.4100 ha         1 IIR       0.137000
     30 H40         30.8950   -41.7980   -16.8110 hc         1 IIR       0.082700
     31 H41         30.3270   -42.3470   -19.1610 hc         1 IIR       0.076700
     32 H42         29.2770   -43.7290   -18.6020 hc         1 IIR       0.076700
     33 H44         27.8600   -42.1360   -17.2840 hc         1 IIR       0.076700
     34 H43         28.9000   -40.7430   -17.8310 hc         1 IIR       0.076700
     35 H45         32.6580   -43.8980   -14.1570 h1         1 IIR       0.036700
     36 H46         32.3420   -42.5040   -15.1800 h1         1 IIR       0.036700
     37 H29         30.6760   -50.6350    -7.1860 h4         1 IIR       0.180000
     38 H30         34.4920   -47.6970    -7.7760 ha         1 IIR       0.137000
     39 H31         36.3310   -47.8200    -6.1500 ha         1 IIR       0.129500
     40 H32         36.1380   -49.2710    -4.1520 ha         1 IIR       0.129000
     41 H38         27.2220   -46.4290   -14.9190 ha         1 IIR       0.167000
     42 H47         32.4870   -42.0670   -12.8390 ho         1 IIR       0.407000
     43 C12         29.0590   -49.8960    -9.3190 c3         1 IIR       0.026600
     44 H39         28.0020   -47.5920   -12.8430 ha         1 IIR       0.153000
     45 H37         28.7930   -49.4230   -10.2600 h1         1 IIR       0.059367
     46 H36         29.1450   -50.9690    -9.4780 h1         1 IIR       0.059367
     47 H35         28.2740   -49.7010    -8.5920 h1         1 IIR       0.059367
@<TRIPOS>BOND
     1     1     2 ar  
     2     1    22 ar  
     3     1    28 1   
     4     2    19 ar  
     5     2    29 1   
     6     3    13 3   
     7     3    18 1   
     8     4     5 1   
     9     4    23 2   
    10     4    44 1   
    11     5    13 1   
    12     5    24 2   
    13     6    23 1   
    14     6    25 1   
    15     6    26 2   
    16     7     8 2   
    17     7    12 1   
    18     7    25 1   
    19     8     9 1   
    20     8    26 1   
    21     9    10 1   
    22     9    11 1   
    23     9    30 1   
    24    10    11 1   
    25    10    31 1   
    26    10    32 1   
    27    11    33 1   
    28    11    34 1   
    29    12    27 1   
    30    12    35 1   
    31    12    36 1   
    32    14    15 1   
    33    14    18 1   
    34    14    43 1   
    35    15    16 2   
    36    15    37 1   
    37    16    17 1   
    38    16    19 1   
    39    17    18 2   
    40    19    20 ar  
    41    20    21 ar  
    42    20    38 1   
    43    21    22 ar  
    44    21    39 1   
    45    22    40 1   
    46    23    41 1   
    47    24    25 1   
    48    27    42 1   
    49    43    45 1   
    50    43    46 1   
    51    43    47 1   
@<TRIPOS>SUBSTRUCTURE
     1 IIR         1 TEMP              0 ****  ****    0 ROOT
