@<TRIPOS>MOLECULE
IIS
   13    13     1     0     0
SMALL
No Charge or Current Charge


@<TRIPOS>ATOM
      1 C4         -15.7650   -18.3170    -2.6320 ca         1 IIS      -0.199000
      2 C5         -15.8320   -19.4300    -1.7830 ca         1 IIS       0.387900
      3 N1         -18.6210   -21.1750    -2.8020 nv         1 IIS      -1.060900
      4 N2         -16.8070   -20.3640    -1.8750 nb         1 IIS      -0.738000
      5 C3         -16.7460   -18.1660    -3.6170 ca         1 IIS       0.274000
      6 C1         -17.7190   -20.1920    -2.8210 ca         1 IIS       0.603900
      7 C2         -17.7540   -19.1270    -3.7170 ca         1 IIS      -0.208000
      8 I1         -16.7040   -16.4720    -4.9620 i          1 IIS      -0.308000
      9 H4         -14.9660   -17.5900    -2.5250 ha         1 IIS       0.138000
     10 H5         -15.0860   -19.5810    -1.0030 h4         1 IIS       0.019100
     11 H2         -18.6090   -21.7450    -1.9640 hn         1 IIS       0.479000
     12 H1         -19.5320   -20.9920    -3.2100 hn         1 IIS       0.479000
     13 H3         -18.5330   -19.0470    -4.4680 ha         1 IIS       0.133000
@<TRIPOS>BOND
     1     1     2 ar  
     2     1     5 ar  
     3     1     9 1   
     4     2     4 ar  
     5     2    10 1   
     6     3     6 1   
     7     3    11 1   
     8     3    12 1   
     9     4     6 ar  
    10     5     7 ar  
    11     5     8 1   
    12     6     7 ar  
    13     7    13 1   
@<TRIPOS>SUBSTRUCTURE
     1 IIS         1 TEMP              0 ****  ****    0 ROOT
