@<TRIPOS>MOLECULE
IIS
   13    13     1     0     0
SMALL
bcc


@<TRIPOS>ATOM
      1 C4         -15.7360   -18.2980    -2.6410 ca         1 IIS      -0.282300
      2 C5         -15.8100   -19.3920    -1.7970 ca         1 IIS       0.453200
      3 N1         -18.6520   -21.1790    -2.8230 nv         1 IIS      -0.950500
      4 N2         -16.7600   -20.3170    -1.8420 nb         1 IIS      -0.738000
      5 C3         -16.7450   -18.1870    -3.5920 ca         1 IIS       0.136900
      6 C1         -17.7150   -20.1990    -2.7630 ca         1 IIS       0.669200
      7 C2         -17.7460   -19.1250    -3.6760 ca         1 IIS      -0.291300
      8 I1         -16.7380   -16.5610    -4.9240 i          1 IIS      -0.170900
      9 H4         -14.9330   -17.5810    -2.5480 ha         1 IIS       0.156000
     10 H5         -15.0510   -19.5270    -1.0340 h4         1 IIS       0.019100
     11 H2         -18.7360   -21.7820    -2.0210 hn         1 IIS       0.423800
     12 H1         -19.5130   -20.9930    -3.3080 hn         1 IIS       0.423800
     13 H3         -18.5390   -19.0580    -4.4090 ha         1 IIS       0.151000
@<TRIPOS>BOND
     1     1     2 ar  
     2     1     5 ar  
     3     1     9 1   
     4     2     4 ar  
     5     2    10 1   
     6     3     6 1   
     7     3    11 1   
     8     3    12 1   
     9     4     6 ar  
    10     5     7 ar  
    11     5     8 1   
    12     6     7 ar  
    13     7    13 1   
@<TRIPOS>SUBSTRUCTURE
     1 IIS         1 TEMP              0 ****  ****    0 ROOT
