@<TRIPOS>MOLECULE
IIU
   43    46     1     0     0
SMALL
No Charge or Current Charge


@<TRIPOS>ATOM
      1 C11         29.2030   -46.8700   -11.9030 cc         1 IIU       0.093600
      2 C13         28.5360   -48.7410   -10.3610 cd         1 IIU      -0.041000
      3 C15         30.7510   -47.7630   -10.3210 cd         1 IIU      -0.036000
      4 C18         31.5370   -48.9600    -8.7850 cc         1 IIU       0.593900
      5 C20         32.5380   -49.4720    -7.8270 ca         1 IIU      -0.110900
      6 C21         32.2120   -50.5240    -6.9370 ca         1 IIU      -0.071500
      7 C22         33.1610   -51.0150    -6.0230 ca         1 IIU      -0.123500
      8 C23         34.4510   -50.4640    -5.9810 ca         1 IIU      -0.094000
      9 C24         34.7910   -49.4210    -6.8550 ca         1 IIU      -0.123500
     10 C25         33.8450   -48.9270    -7.7710 ca         1 IIU      -0.071500
     11 C26         29.4000   -45.0280   -13.6310 c          1 IIU       0.617700
     12 C1          28.5680   -44.3290   -14.6910 ca         1 IIU      -0.110600
     13 C2          29.1350   -43.2890   -15.4610 ca         1 IIU      -0.103000
     14 C3          28.3610   -42.6460   -16.4400 ca         1 IIU       0.444000
     15 N4          27.0760   -42.9640   -16.7010 nb         1 IIU      -0.652000
     16 C5          26.5190   -43.9570   -15.9760 ca         1 IIU       0.371300
     17 C6          27.2180   -44.6580   -14.9720 ca         1 IIU      -0.149000
     18 Cl7         29.0490   -41.3490   -17.4050 cl         1 IIU      -0.155000
     19 C8          25.0670   -44.2880   -16.2880 c3         1 IIU      -0.128700
     20 C9          24.0820   -43.6550   -15.2820 c3         1 IIU      -0.087100
     21 N10         28.7580   -46.0360   -12.9270 ns         1 IIU      -0.397100
     22 C12         28.2560   -47.8330   -11.3820 cc         1 IIU      -0.207000
     23 C14         30.4800   -46.8300   -11.3640 cd         1 IIU      -0.131000
     24 N16         29.8310   -48.6580    -9.8560 na         1 IIU       0.280400
     25 N17         30.3000   -49.4500    -8.8620 nd         1 IIU      -0.599100
     26 N19         31.8640   -47.9340    -9.6480 nc         1 IIU      -0.399300
     27 O27         30.5610   -44.7020   -13.4300 o          1 IIU      -0.546100
     28 H37         27.8610   -49.4760    -9.9420 h4         1 IIU       0.164000
     29 H39         31.2190   -50.9700    -6.9480 ha         1 IIU       0.131000
     30 H40         32.8950   -51.8240    -5.3470 ha         1 IIU       0.114000
     31 H41         35.1840   -50.8450    -5.2740 ha         1 IIU       0.112000
     32 H42         35.7910   -48.9930    -6.8250 ha         1 IIU       0.114000
     33 H43         34.1390   -48.1180    -8.4360 ha         1 IIU       0.131000
     34 H28         30.1640   -42.9730   -15.3110 ha         1 IIU       0.160000
     35 H29         26.6930   -45.4410   -14.4330 ha         1 IIU       0.129000
     36 H31         24.8060   -43.9510   -17.2990 hc         1 IIU       0.057200
     37 H30         24.9280   -45.3760   -16.2850 hc         1 IIU       0.057200
     38 H34         23.0490   -43.9150   -15.5410 hc         1 IIU       0.042700
     39 H32         24.2810   -44.0130   -14.2640 hc         1 IIU       0.042700
     40 H33         24.1730   -42.5620   -15.2880 hc         1 IIU       0.042700
     41 H35         27.8020   -46.1730   -13.2230 hn         1 IIU       0.326500
     42 H36         27.2620   -47.8470   -11.8180 ha         1 IIU       0.131000
     43 H38         31.2520   -46.1460   -11.6880 ha         1 IIU       0.179000
@<TRIPOS>BOND
     1     1    21 1   
     2     1    22 1   
     3     1    23 2   
     4     2    22 2   
     5     2    24 1   
     6     2    28 1   
     7     3    23 1   
     8     3    24 1   
     9     3    26 2   
    10     4     5 1   
    11     4    25 2   
    12     4    26 1   
    13     5     6 ar  
    14     5    10 ar  
    15     6     7 ar  
    16     6    29 1   
    17     7     8 ar  
    18     7    30 1   
    19     8     9 ar  
    20     8    31 1   
    21     9    10 ar  
    22     9    32 1   
    23    10    33 1   
    24    11    12 1   
    25    11    21 1   
    26    11    27 2   
    27    12    13 ar  
    28    12    17 ar  
    29    13    14 ar  
    30    13    34 1   
    31    14    15 ar  
    32    14    18 1   
    33    15    16 ar  
    34    16    17 ar  
    35    16    19 1   
    36    17    35 1   
    37    19    20 1   
    38    19    36 1   
    39    19    37 1   
    40    20    38 1   
    41    20    39 1   
    42    20    40 1   
    43    21    41 1   
    44    22    42 1   
    45    23    43 1   
    46    24    25 1   
@<TRIPOS>SUBSTRUCTURE
     1 IIU         1 TEMP              0 ****  ****    0 ROOT
