@<TRIPOS>MOLECULE
IIU
   43    46     1     0     0
SMALL
bcc


@<TRIPOS>ATOM
      1 C11         29.3000   -47.2440   -12.1800 cc         1 IIU       0.093600
      2 C13         29.0780   -49.3870   -11.0790 cd         1 IIU      -0.008300
      3 C15         30.7680   -47.8400   -10.4010 cd         1 IIU       0.014700
      4 C18         31.6360   -48.9850    -8.8740 cc         1 IIU       0.593900
      5 C20         32.5300   -49.3830    -7.7850 ca         1 IIU      -0.110900
      6 C21         32.4430   -50.6540    -7.2150 ca         1 IIU      -0.089500
      7 C22         33.3010   -51.0200    -6.1900 ca         1 IIU      -0.141500
      8 C23         34.2530   -50.1240    -5.7210 ca         1 IIU      -0.112000
      9 C24         34.3430   -48.8580    -6.2830 ca         1 IIU      -0.141500
     10 C25         33.4870   -48.4880    -7.3100 ca         1 IIU      -0.089500
     11 C26         29.2670   -45.2450   -13.6320 c          1 IIU       0.684700
     12 C1          28.4220   -44.5840   -14.6770 ca         1 IIU      -0.110600
     13 C2          29.0630   -43.8630   -15.6730 ca         1 IIU      -0.186300
     14 C3          28.2540   -43.2410   -16.6080 ca         1 IIU       0.509300
     15 N4          26.9450   -43.2660   -16.6060 nb         1 IIU      -0.652000
     16 C5          26.3230   -43.9400   -15.6390 ca         1 IIU       0.436600
     17 C6          27.0330   -44.6200   -14.6550 ca         1 IIU      -0.232300
     18 CL7         29.0070   -42.3520   -17.8940 cl         1 IIU      -0.155000
     19 C8          24.8250   -43.8940   -15.6360 c3         1 IIU      -0.128700
     20 C9          24.3050   -42.5450   -15.1430 c3         1 IIU      -0.087100
     21 N10         28.7740   -46.4260   -13.1720 ns         1 IIU      -0.464100
     22 C12         28.6580   -48.5060   -12.0180 cc         1 IIU      -0.225000
     23 C14         30.3580   -46.9090   -11.3680 cd         1 IIU      -0.149000
     24 N16         30.1230   -49.0410   -10.2920 na         1 IIU       0.179000
     25 N17         30.6730   -49.7760    -9.3200 nd         1 IIU      -0.599100
     26 N19         31.7340   -47.7960    -9.4960 nc         1 IIU      -0.399300
     27 O27         30.3060   -44.7420   -13.2580 o          1 IIU      -0.546100
     28 H37         28.6330   -50.3560   -10.9140 h4         1 IIU       0.182000
     29 H39         31.7060   -51.3590    -7.5750 ha         1 IIU       0.149000
     30 H40         33.2260   -52.0090    -5.7560 ha         1 IIU       0.132000
     31 H41         34.9220   -50.4120    -4.9200 ha         1 IIU       0.130000
     32 H42         35.0820   -48.1540    -5.9220 ha         1 IIU       0.132000
     33 H43         33.5610   -47.5000    -7.7450 ha         1 IIU       0.149000
     34 H28         30.1400   -43.7990   -15.7270 ha         1 IIU       0.178000
     35 H29         26.4890   -45.1400   -13.8770 ha         1 IIU       0.147000
     36 H31         24.4640   -44.0780   -16.6510 hc         1 IIU       0.057200
     37 H30         24.4350   -44.6950   -15.0070 hc         1 IIU       0.057200
     38 H34         23.2160   -42.5240   -15.1660 hc         1 IIU       0.042700
     39 H32         24.6230   -42.3520   -14.1170 hc         1 IIU       0.042700
     40 H33         24.6700   -41.7310   -15.7690 hc         1 IIU       0.042700
     41 H35         27.9640   -46.7950   -13.6480 hn         1 IIU       0.326500
     42 H36         27.8240   -48.7820   -12.6490 ha         1 IIU       0.149000
     43 H38         30.8840   -45.9720   -11.4350 ha         1 IIU       0.197000
@<TRIPOS>BOND
     1     1    21 1   
     2     1    22 1   
     3     1    23 2   
     4     2    22 2   
     5     2    24 1   
     6     2    28 1   
     7     3    23 1   
     8     3    24 1   
     9     3    26 2   
    10     4     5 1   
    11     4    25 2   
    12     4    26 1   
    13     5     6 ar  
    14     5    10 ar  
    15     6     7 ar  
    16     6    29 1   
    17     7     8 ar  
    18     7    30 1   
    19     8     9 ar  
    20     8    31 1   
    21     9    10 ar  
    22     9    32 1   
    23    10    33 1   
    24    11    12 1   
    25    11    21 1   
    26    11    27 2   
    27    12    13 ar  
    28    12    17 ar  
    29    13    14 ar  
    30    13    34 1   
    31    14    15 ar  
    32    14    18 1   
    33    15    16 ar  
    34    16    17 ar  
    35    16    19 1   
    36    17    35 1   
    37    19    20 1   
    38    19    36 1   
    39    19    37 1   
    40    20    38 1   
    41    20    39 1   
    42    20    40 1   
    43    21    41 1   
    44    22    42 1   
    45    23    43 1   
    46    24    25 1   
@<TRIPOS>SUBSTRUCTURE
     1 IIU         1 TEMP              0 ****  ****    0 ROOT
