@<TRIPOS>MOLECULE
IIV
   28    27     1     0     0
SMALL
No Charge or Current Charge


@<TRIPOS>ATOM
      1 C4         -25.8040    44.5660    10.8710 c3         1 IIV      -0.180400
      2 C5         -25.1420    44.5440    12.2460 c          1 IIV       0.612100
      3 C6         -27.7590    45.4630     9.4580 c          1 IIV       0.580100
      4 C7         -26.5660    47.7000     9.2410 c3         1 IIV       0.191100
      5 C8         -27.4610    48.5520    10.0330 c1         1 IIV      -0.125100
      6 C9         -28.2040    49.2210    10.7140 c1         1 IIV      -0.026200
      7 N1         -28.1520    44.4130    11.6900 ns         1 IIV      -0.506900
      8 N2         -25.1780    43.3730    12.9130 nt         1 IIV      -0.604000
      9 C3         -27.2020    45.2400    10.9050 c3         1 IIV       0.056700
     10 C1         -28.2530    45.9520    13.6610 c3         1 IIV      -0.185100
     11 C2         -28.5760    44.6200    12.9850 c          1 IIV       0.617100
     12 O1         -29.2380    43.7630    13.5470 o          1 IIV      -0.595100
     13 O2         -24.5910    45.5160    12.7310 o          1 IIV      -0.608100
     14 O3         -28.5620    44.6990     8.9420 o          1 IIV      -0.577100
     15 Br1        -29.3080    50.1950    11.7350 br         1 IIV      -0.002800
     16 H1         -25.9290    43.5420    10.4980 hc         1 IIV       0.069700
     17 H2         -25.1560    45.1280    10.1900 hc         1 IIV       0.069700
     18 H3         -25.7140    47.3800     9.8550 h1         1 IIV       0.073700
     19 H4         -26.1740    48.2800     8.3950 h1         1 IIV       0.073700
     20 H5         -28.4900    43.5580    11.2630 hn         1 IIV       0.322500
     21 H6         -24.7440    43.3090    13.8210 hn         1 IIV       0.317500
     22 H7         -25.6330    42.5700    12.5030 hn         1 IIV       0.317500
     23 H8         -27.1040    46.2270    11.3680 h1         1 IIV       0.096700
     24 H9         -27.6510    46.5940     7.7780 hn         1 IIV       0.322500
     25 H10        -28.6870    46.0260    14.6640 hc         1 IIV       0.065367
     26 H11        -27.1680    46.0960    13.6890 hc         1 IIV       0.065367
     27 H12        -28.5910    46.7730    13.0200 hc         1 IIV       0.065367
     28 N3         -27.2920    46.5350     8.7230 ns         1 IIV      -0.507900
@<TRIPOS>BOND
     1     1     2 1   
     2     1     9 1   
     3     1    16 1   
     4     1    17 1   
     5     2     8 1   
     6     2    13 2   
     7     3     9 1   
     8     3    14 2   
     9     3    28 1   
    10     4     5 1   
    11     4    18 1   
    12     4    19 1   
    13     4    28 1   
    14     5     6 3   
    15     6    15 1   
    16     7     9 1   
    17     7    11 1   
    18     7    20 1   
    19     8    21 1   
    20     8    22 1   
    21     9    23 1   
    22    10    11 1   
    23    10    25 1   
    24    10    26 1   
    25    10    27 1   
    26    11    12 2   
    27    24    28 1   
@<TRIPOS>SUBSTRUCTURE
     1 IIV         1 TEMP              0 ****  ****    0 ROOT
