@<TRIPOS>MOLECULE
IIV
   28    27     1     0     0
SMALL
abcg2


@<TRIPOS>ATOM
      1 C4         -25.8820    44.4310    10.9140 c3         1 IIV      -0.180400
      2 C5         -25.1590    44.3170    12.2450 c          1 IIV       0.612100
      3 C6         -27.8330    45.3810     9.6870 c          1 IIV       0.580100
      4 C7         -26.5960    47.5450     9.4410 c3         1 IIV       0.191100
      5 C8         -27.3550    48.5350    10.2070 c1         1 IIV      -0.125100
      6 C9         -27.9790    49.3390    10.8450 c1         1 IIV      -0.026200
      7 N1         -28.0980    44.4180    11.9130 ns         1 IIV      -0.506900
      8 N2         -24.4610    43.1870    12.4150 nt         1 IIV      -0.604000
      9 C3         -27.2100    45.1720    11.0710 c3         1 IIV       0.056700
     10 C1         -28.6690    46.3310    13.3220 c3         1 IIV      -0.185100
     11 C2         -28.8290    44.8770    12.9550 c          1 IIV       0.617100
     12 O1         -29.5790    44.1340    13.5690 o          1 IIV      -0.595100
     13 O2         -25.1970    45.2110    13.0760 o          1 IIV      -0.608100
     14 O3         -28.6380    44.5830     9.2420 o          1 IIV      -0.577100
     15 BR1        -28.9080    50.5240    11.7900 br         1 IIV      -0.002800
     16 H1         -26.0540    43.4490    10.4670 hc         1 IIV       0.069700
     17 H2         -25.2220    44.9660    10.2250 hc         1 IIV       0.069700
     18 H3         -25.7510    47.1950    10.0360 h1         1 IIV       0.073700
     19 H4         -26.1560    48.0260     8.5680 h1         1 IIV       0.073700
     20 H5         -28.2700    43.4580    11.6490 hn         1 IIV       0.322500
     21 H6         -23.9020    43.0530    13.2420 hn         1 IIV       0.317500
     22 H7         -24.4360    42.4620    11.7180 hn         1 IIV       0.317500
     23 H8         -27.0130    46.1280    11.5510 h1         1 IIV       0.096700
     24 H9         -27.8350    46.5610     8.0650 hn         1 IIV       0.322500
     25 H10        -29.2990    46.5570    14.1780 hc         1 IIV       0.065367
     26 H11        -27.6350    46.5660    13.5790 hc         1 IIV       0.065367
     27 H12        -28.9570    46.9850    12.4980 hc         1 IIV       0.065367
     28 N3         -27.4040    46.4410     8.9710 ns         1 IIV      -0.507900
@<TRIPOS>BOND
     1     1     2 1   
     2     1     9 1   
     3     1    16 1   
     4     1    17 1   
     5     2     8 1   
     6     2    13 2   
     7     3     9 1   
     8     3    14 2   
     9     3    28 1   
    10     4     5 1   
    11     4    18 1   
    12     4    19 1   
    13     4    28 1   
    14     5     6 3   
    15     6    15 1   
    16     7     9 1   
    17     7    11 1   
    18     7    20 1   
    19     8    21 1   
    20     8    22 1   
    21     9    23 1   
    22    10    11 1   
    23    10    25 1   
    24    10    26 1   
    25    10    27 1   
    26    11    12 2   
    27    24    28 1   
@<TRIPOS>SUBSTRUCTURE
     1 IIV         1 TEMP              0 ****  ****    0 ROOT
