@<TRIPOS>MOLECULE
IIW
   62    65     1     0     0
SMALL
abcg2


@<TRIPOS>ATOM
      1 CAY        201.7650     8.5620   147.3450 c6         1 IIW       0.142800
      2 CAZ        200.3570     9.1280   147.3620 c6         1 IIW       0.141100
      3 OBA        199.4510     8.3070   146.6460 os         1 IIW      -0.453000
      4 CBB        199.8220     6.9440   146.5970 c6         1 IIW       0.141100
      5 CBC        200.5810     6.5040   147.8320 c6         1 IIW       0.142800
      6 NAX        201.8360     7.2340   147.9460 n3         1 IIW      -0.755600
      7 CAV        202.4030     7.1690   149.2710 c3         1 IIW       0.160800
      8 CAU        203.0320     5.8070   149.5460 c3         1 IIW       0.068600
      9 NAG        204.0950     5.5160   148.6040 na         1 IIW      -0.065700
     10 CAH        203.8960     5.0660   147.3390 cc         1 IIW      -0.026100
     11 CAD        205.4190     5.8130   148.7590 ca         1 IIW      -0.089200
     12 CAC        206.1460     6.3160   149.8200 ca         1 IIW      -0.062000
     13 CAB        207.5080     6.4760   149.6060 ca         1 IIW      -0.040900
     14 BRAW       208.5320     7.1670   151.0310 br         1 IIW      -0.074100
     15 CAA        208.0940     6.1360   148.3730 ca         1 IIW       0.273500
     16 CAJ        209.5480     6.2710   148.0810 c          1 IIW       0.469400
     17 OBH        210.0160     5.9670   147.0130 o          1 IIW      -0.459100
     18 NAF        207.3690     5.6610   147.3680 nb         1 IIW      -0.606000
     19 CAE        206.0730     5.5060   147.5440 ca         1 IIW       0.374800
     20 CAI        205.0760     5.0270   146.6380 cd         1 IIW      -0.358000
     21 CAK        205.2180     4.5960   145.2480 c          1 IIW       0.668300
     22 OAL        204.2640     4.2530   144.5710 o          1 IIW      -0.604100
     23 NAM        206.5110     4.6260   144.8020 ns         1 IIW      -0.314900
     24 CAN        207.0160     4.3430   143.5480 ca         1 IIW       0.539900
     25 CAO        206.2380     3.9910   142.4570 ca         1 IIW      -0.299000
     26 NAS        208.3520     4.4670   143.5070 nb         1 IIW      -0.755000
     27 CAR        208.9440     4.2340   142.3600 ca         1 IIW       0.454900
     28 CAQ        208.2750     3.8840   141.1910 ca         1 IIW      -0.223000
     29 CBI        209.0080     3.6590   140.0020 cg         1 IIW       0.346000
     30 NBJ        209.5990     3.4700   139.0280 n1         1 IIW      -0.487000
     31 CAP        206.8610     3.7630   141.2210 ca         1 IIW       0.435000
     32 NAT        206.1710     3.4330   140.1200 nu         1 IIW      -0.947200
     33 CBD        204.7280     3.4310   140.0190 c3         1 IIW       0.224800
     34 CBE        204.1130     4.8180   139.9670 c3         1 IIW       0.125600
     35 OBF        204.6230     5.5020   138.8540 os         1 IIW      -0.455000
     36 CBG        204.1660     6.8280   138.7830 c3         1 IIW       0.145900
     37 H1         202.4310     9.2450   147.8740 h1         1 IIW       0.051450
     38 H2         202.1250     8.5250   146.3100 h1         1 IIW       0.051450
     39 H3         200.0240     9.2530   148.4010 h1         1 IIW       0.051700
     40 H4         200.3470    10.1180   146.8990 h1         1 IIW       0.051700
     41 H5         200.4270     6.7350   145.7050 h1         1 IIW       0.051700
     42 H6         198.9070     6.3560   146.5080 h1         1 IIW       0.051700
     43 H7         199.9440     6.6480   148.7190 h1         1 IIW       0.051450
     44 H8         200.7620     5.4270   147.7570 h1         1 IIW       0.051450
     45 H10        201.6640     7.3580   150.0660 h1         1 IIW       0.048200
     46 H11        203.1790     7.9310   149.3700 h1         1 IIW       0.048200
     47 H12        202.2980     5.0040   149.4830 h1         1 IIW       0.067700
     48 H13        203.4400     5.7810   150.5560 h1         1 IIW       0.067700
     49 H14        202.9110     4.7720   147.0130 h4         1 IIW       0.240000
     50 H15        205.6870     6.5740   150.7660 ha         1 IIW       0.137000
     51 H16        210.1840     6.6610   148.8860 h4         1 IIW       0.015200
     52 H19        207.2230     4.9240   145.4670 hn         1 IIW       0.209000
     53 H20        205.1710     3.9030   142.5630 ha         1 IIW       0.153000
     54 H21        210.0240     4.3300   142.3400 h4         1 IIW       0.026100
     55 H22        206.6750     3.3590   139.2510 hn         1 IIW       0.505000
     56 H23        204.2900     2.8770   140.8520 h1         1 IIW       0.063200
     57 H24        204.4730     2.8790   139.1150 h1         1 IIW       0.063200
     58 H25        204.3280     5.3690   140.8940 h1         1 IIW       0.035700
     59 H26        203.0210     4.7110   139.9100 h1         1 IIW       0.035700
     60 H27        204.6150     7.2920   137.9050 h1         1 IIW       0.030033
     61 H28        203.0750     6.8850   138.6840 h1         1 IIW       0.030033
     62 H29        204.4530     7.4090   139.6670 h1         1 IIW       0.030033
@<TRIPOS>BOND
     1     1     2 1   
     2     1     6 1   
     3     1    37 1   
     4     1    38 1   
     5     2     3 1   
     6     2    39 1   
     7     2    40 1   
     8     3     4 1   
     9     4     5 1   
    10     4    41 1   
    11     4    42 1   
    12     5     6 1   
    13     5    43 1   
    14     5    44 1   
    15     6     7 1   
    16     7     8 1   
    17     7    45 1   
    18     7    46 1   
    19     8     9 1   
    20     8    47 1   
    21     8    48 1   
    22     9    10 1   
    23     9    11 1   
    24    10    20 2   
    25    10    49 1   
    26    11    12 ar  
    27    11    19 ar  
    28    12    13 ar  
    29    12    50 1   
    30    13    14 1   
    31    13    15 ar  
    32    15    16 1   
    33    15    18 ar  
    34    16    17 2   
    35    16    51 1   
    36    18    19 ar  
    37    19    20 1   
    38    20    21 1   
    39    21    22 2   
    40    21    23 1   
    41    23    24 1   
    42    23    52 1   
    43    24    25 ar  
    44    24    26 ar  
    45    25    31 ar  
    46    25    53 1   
    47    26    27 ar  
    48    27    28 ar  
    49    27    54 1   
    50    28    29 1   
    51    28    31 ar  
    52    29    30 3   
    53    31    32 1   
    54    32    33 1   
    55    32    55 1   
    56    33    34 1   
    57    33    56 1   
    58    33    57 1   
    59    34    35 1   
    60    34    58 1   
    61    34    59 1   
    62    35    36 1   
    63    36    60 1   
    64    36    61 1   
    65    36    62 1   
@<TRIPOS>SUBSTRUCTURE
     1 IIW         1 TEMP              0 ****  ****    0 ROOT
