@<TRIPOS>MOLECULE
IIW
   62    65     1     0     0
SMALL
No Charge or Current Charge


@<TRIPOS>ATOM
      1 CAY        201.4180     9.1320   148.6180 c6         1 IIW       0.142800
      2 CAZ        199.9530     9.4650   149.0310 c6         1 IIW       0.141100
      3 OBA        198.9890     8.9640   148.0570 os         1 IIW      -0.453000
      4 CBB        199.4170     7.7890   147.3060 c6         1 IIW       0.141100
      5 CBC        200.3950     6.9050   148.1330 c6         1 IIW       0.142800
      6 NAX        201.6530     7.6490   148.5010 n3         1 IIW      -0.755600
      7 CAV        202.3720     7.0620   149.6660 c3         1 IIW       0.160800
      8 CAU        202.8650     5.6070   149.4700 c3         1 IIW       0.068600
      9 NAG        203.8620     5.4650   148.3930 na         1 IIW      -0.065700
     10 CAH        203.6280     5.0560   147.0650 cc         1 IIW      -0.026100
     11 CAD        205.2100     5.7490   148.5790 ca         1 IIW      -0.089200
     12 CAC        205.9020     6.1880   149.7150 ca         1 IIW      -0.062000
     13 CAB        207.2920     6.3860   149.5690 ca         1 IIW      -0.040900
     14 BrAW       208.2690     6.9890   151.1100 br         1 IIW      -0.074100
     15 CAA        207.9200     6.1360   148.3060 ca         1 IIW       0.273500
     16 CAJ        209.4190     6.3400   148.1250 c          1 IIW       0.469400
     17 OBH        210.0250     6.1380   147.0730 o          1 IIW      -0.459100
     18 NAF        207.1980     5.7070   147.2210 nb         1 IIW      -0.606000
     19 CAE        205.8790     5.5350   147.4060 ca         1 IIW       0.374800
     20 CAI        204.8830     5.1000   146.4580 cd         1 IIW      -0.358000
     21 CAK        205.0790     4.7410   145.0360 c          1 IIW       0.668300
     22 OAL        204.1500     4.3820   144.3270 o          1 IIW      -0.604100
     23 NAM        206.3680     4.8570   144.5910 ns         1 IIW      -0.314900
     24 CAN        206.9290     4.5880   143.3450 ca         1 IIW       0.539900
     25 CAO        206.3620     3.7780   142.3590 ca         1 IIW      -0.299000
     26 NAS        208.1150     5.1960   143.2050 nb         1 IIW      -0.755000
     27 CAR        208.7780     5.0180   142.0430 ca         1 IIW       0.454900
     28 CAQ        208.2870     4.2340   140.9970 ca         1 IIW      -0.223000
     29 CBI        209.0630     4.1110   139.8050 cg         1 IIW       0.346000
     30 NBJ        209.6990     3.9990   138.8340 n1         1 IIW      -0.487000
     31 CAP        207.0500     3.6020   141.1610 ca         1 IIW       0.435000
     32 NAT        206.4970     2.8000   140.1630 nu         1 IIW      -0.947200
     33 CBD        205.0780     2.8410   139.7330 c3         1 IIW       0.224800
     34 CBE        204.6870     4.2140   139.1240 c3         1 IIW       0.125600
     35 OBF        205.5230     4.4790   137.9780 os         1 IIW      -0.455000
     36 CBG        205.2790     5.7440   137.3410 c3         1 IIW       0.145900
     37 H1         202.1140     9.5910   149.3360 h1         1 IIW       0.051450
     38 H2         201.6130     9.6130   147.6480 h1         1 IIW       0.051450
     39 H3         199.7390     9.0100   150.0080 h1         1 IIW       0.051700
     40 H4         199.8260    10.5520   149.1320 h1         1 IIW       0.051700
     41 H5         199.9180     8.1190   146.3840 h1         1 IIW       0.051700
     42 H6         198.5300     7.2080   147.0170 h1         1 IIW       0.051700
     43 H7         199.8640     6.5720   149.0380 h1         1 IIW       0.051450
     44 H8         200.6390     6.0020   147.5560 h1         1 IIW       0.051450
     45 H10        201.7230     7.0870   150.5520 h1         1 IIW       0.048200
     46 H11        203.2510     7.6770   149.9020 h1         1 IIW       0.048200
     47 H12        202.0120     4.9540   149.2520 h1         1 IIW       0.067700
     48 H13        203.3090     5.2520   150.4080 h1         1 IIW       0.067700
     49 H14        202.6470     4.7890   146.6840 h4         1 IIW       0.240000
     50 H15        205.4020     6.3700   150.6630 ha         1 IIW       0.137000
     51 H16        209.9800     6.6930   149.0150 h4         1 IIW       0.015200
     52 H19        207.0260     5.2110   145.2700 hn         1 IIW       0.209000
     53 H20        205.4180     3.2780   142.5230 ha         1 IIW       0.153000
     54 H21        209.7380     5.5270   141.9580 h4         1 IIW       0.026100
     55 H22        207.1460     2.6250   139.3930 hn         1 IIW       0.505000
     56 H23        204.4120     2.6250   140.5790 h1         1 IIW       0.063200
     57 H24        204.8970     2.0640   138.9770 h1         1 IIW       0.063200
     58 H25        204.8100     4.9960   139.8850 h1         1 IIW       0.035700
     59 H26        203.6290     4.1870   138.8320 h1         1 IIW       0.035700
     60 H27        205.9480     5.8740   136.4810 h1         1 IIW       0.030033
     61 H28        204.2440     5.8070   136.9810 h1         1 IIW       0.030033
     62 H29        205.4550     6.5730   138.0400 h1         1 IIW       0.030033
@<TRIPOS>BOND
     1     1     2 1   
     2     1     6 1   
     3     1    37 1   
     4     1    38 1   
     5     2     3 1   
     6     2    39 1   
     7     2    40 1   
     8     3     4 1   
     9     4     5 1   
    10     4    41 1   
    11     4    42 1   
    12     5     6 1   
    13     5    43 1   
    14     5    44 1   
    15     6     7 1   
    16     7     8 1   
    17     7    45 1   
    18     7    46 1   
    19     8     9 1   
    20     8    47 1   
    21     8    48 1   
    22     9    10 1   
    23     9    11 1   
    24    10    20 2   
    25    10    49 1   
    26    11    12 ar  
    27    11    19 ar  
    28    12    13 ar  
    29    12    50 1   
    30    13    14 1   
    31    13    15 ar  
    32    15    16 1   
    33    15    18 ar  
    34    16    17 2   
    35    16    51 1   
    36    18    19 ar  
    37    19    20 1   
    38    20    21 1   
    39    21    22 2   
    40    21    23 1   
    41    23    24 1   
    42    23    52 1   
    43    24    25 ar  
    44    24    26 ar  
    45    25    31 ar  
    46    25    53 1   
    47    26    27 ar  
    48    27    28 ar  
    49    27    54 1   
    50    28    29 1   
    51    28    31 ar  
    52    29    30 3   
    53    31    32 1   
    54    32    33 1   
    55    32    55 1   
    56    33    34 1   
    57    33    56 1   
    58    33    57 1   
    59    34    35 1   
    60    34    58 1   
    61    34    59 1   
    62    35    36 1   
    63    36    60 1   
    64    36    61 1   
    65    36    62 1   
@<TRIPOS>SUBSTRUCTURE
     1 IIW         1 TEMP              0 ****  ****    0 ROOT
