@<TRIPOS>MOLECULE
IIX
   43    46     1     0     0
SMALL
No Charge or Current Charge


@<TRIPOS>ATOM
      1 C16          9.6320    36.2680    -9.4380 ca         1 IIX       0.428500
      2 C19         13.6040    34.0080   -16.2410 c3         1 IIX       0.070900
      3 C20          7.9510    34.6800    -9.2170 ca         1 IIX       0.347900
      4 C21          9.2060    36.9300    -8.2680 ca         1 IIX      -0.163000
      5 C22          7.4670    35.2820    -8.0450 ca         1 IIX      -0.165000
      6 C23          8.1040    36.4320    -7.5550 ca         1 IIX      -0.067000
      7 C24         18.0600    40.4190   -14.4300 cy         1 IIX      -0.117400
      8 C25         17.9160    38.9550   -13.9050 cy         1 IIX       0.101500
      9 C26         16.6290    40.2270   -15.0270 cy         1 IIX       0.101500
     10 C1          15.8220    38.2070   -14.3500 c          1 IIX       0.663700
     11 N2          16.9500    38.7600   -15.0390 nj         1 IIX      -0.405800
     12 O3          15.2480    38.5660   -13.3300 o          1 IIX      -0.629100
     13 C4          14.3110    36.0800   -14.8730 cc         1 IIX      -0.149600
     14 C5          15.3610    36.9900   -15.1020 cd         1 IIX      -0.253600
     15 C6          13.2530    35.9710   -13.8020 c          1 IIX       0.635700
     16 C7          11.3200    36.2330   -11.3650 cc         1 IIX      -0.169000
     17 C8          12.4050    37.0500   -11.7280 cc         1 IIX       0.367900
     18 N9          14.4410    35.1870   -15.9510 na         1 IIX       0.177800
     19 N10         15.4710    35.4700   -16.8100 nc         1 IIX      -0.517800
     20 N11         11.5860    37.8750    -9.9510 na         1 IIX       0.002800
     21 C12         10.7850    36.7540   -10.2220 cd         1 IIX      -0.212500
     22 C14         16.0020    36.5450   -16.2840 cd         1 IIX       0.260900
     23 N15         12.5960    38.0500   -10.9000 nd         1 IIX      -0.544800
     24 O17         12.4270    35.0710   -13.8140 o          1 IIX      -0.599100
     25 N18          9.0120    35.1580    -9.9060 nb         1 IIX      -0.655000
     26 H1          13.9550    33.5100   -17.1530 h1         1 IIX       0.070033
     27 H2          13.6630    33.3020   -15.4050 h1         1 IIX       0.070033
     28 H3          12.5640    34.3230   -16.3840 h1         1 IIX       0.070033
     29 H4           7.4750    33.7860    -9.6190 h4         1 IIX       0.023100
     30 H5           9.7200    37.8180    -7.9140 ha         1 IIX       0.116000
     31 H6           6.6100    34.8580    -7.5290 ha         1 IIX       0.126000
     32 H7           7.7540    36.9230    -6.6490 ha         1 IIX       0.120000
     33 H9          18.8460    40.5510   -15.1810 hc         1 IIX       0.063700
     34 H10         17.5300    38.8880   -12.8800 h1         1 IIX       0.060700
     35 H11         18.8270    38.3540   -14.0060 h1         1 IIX       0.060700
     36 H12         16.5050    40.6490   -16.0300 h1         1 IIX       0.060700
     37 H13         15.8240    40.5750   -14.3690 h1         1 IIX       0.060700
     38 H14         10.9740    35.3530   -11.8940 ha         1 IIX       0.180000
     39 H15         11.4830    38.5180    -9.1660 hn         1 IIX       0.372000
     40 H17         16.8560    36.9800   -16.7900 h4         1 IIX       0.042100
     41 N13         13.2400    36.9100   -12.8090 ns         1 IIX      -0.464400
     42 H8          18.1600    41.1950   -13.6650 hc         1 IIX       0.063700
     43 H16         13.9620    37.6090   -12.8900 hn         1 IIX       0.390500
@<TRIPOS>BOND
     1     1     4 ar  
     2     1    21 1   
     3     1    25 ar  
     4     2    18 1   
     5     2    26 1   
     6     2    27 1   
     7     2    28 1   
     8     3     5 ar  
     9     3    25 ar  
    10     3    29 1   
    11     4     6 ar  
    12     4    30 1   
    13     5     6 ar  
    14     5    31 1   
    15     6    32 1   
    16     7     8 1   
    17     7     9 1   
    18     7    33 1   
    19     7    42 1   
    20     8    11 1   
    21     8    34 1   
    22     8    35 1   
    23     9    11 1   
    24     9    36 1   
    25     9    37 1   
    26    10    11 1   
    27    10    12 2   
    28    10    14 1   
    29    13    14 2   
    30    13    15 1   
    31    13    18 1   
    32    14    22 1   
    33    15    24 2   
    34    15    41 1   
    35    16    17 1   
    36    16    21 2   
    37    16    38 1   
    38    17    23 2   
    39    17    41 1   
    40    18    19 1   
    41    19    22 2   
    42    20    21 1   
    43    20    23 1   
    44    20    39 1   
    45    22    40 1   
    46    41    43 1   
@<TRIPOS>SUBSTRUCTURE
     1 IIX         1 TEMP              0 ****  ****    0 ROOT
