@<TRIPOS>MOLECULE
IIX
   43    46     1     0     0
SMALL
abcg2


@<TRIPOS>ATOM
      1 C16          9.6270    36.3490    -9.4900 ca         1 IIX       0.428500
      2 C19         13.7760    33.9860   -16.0010 c3         1 IIX       0.070900
      3 C20          8.8490    34.4630    -8.4610 ca         1 IIX       0.347900
      4 C21          8.8360    37.1630    -8.6800 ca         1 IIX      -0.163000
      5 C22          8.0320    35.1880    -7.6050 ca         1 IIX      -0.165000
      6 C23          8.0310    36.5680    -7.7220 ca         1 IIX      -0.067000
      7 C24         18.4900    39.7320   -14.0230 cy         1 IIX      -0.117400
      8 C25         17.9210    38.5100   -14.7690 cy         1 IIX       0.101500
      9 C26         17.0470    40.2510   -13.8630 cy         1 IIX       0.101500
     10 C1          15.3510    38.5420   -14.5370 c          1 IIX       0.663700
     11 N2          16.5790    39.0480   -14.5410 nj         1 IIX      -0.405800
     12 O3          14.4130    39.1640   -14.0260 o          1 IIX      -0.629100
     13 C4          14.2550    36.2190   -14.8980 cc         1 IIX      -0.149600
     14 C5          15.1650    37.2340   -15.1940 cd         1 IIX      -0.253600
     15 C6          13.2700    36.0190   -13.7980 c          1 IIX       0.635700
     16 C7          11.2740    36.2000   -11.4530 cc         1 IIX      -0.169000
     17 C8          11.9110    37.2160   -12.1860 cc         1 IIX       0.367900
     18 N9          14.4540    35.2580   -15.8240 na         1 IIX       0.177800
     19 N10         15.4020    35.5810   -16.6910 nc         1 IIX      -0.517800
     20 N11         10.7270    38.1930   -10.7510 na         1 IIX       0.002800
     21 C12         10.5100    36.8840   -10.5250 cd         1 IIX      -0.212500
     22 C14         15.8510    36.7600   -16.3220 cd         1 IIX       0.260900
     23 N15         11.5700    38.4170   -11.7500 nd         1 IIX      -0.544800
     24 O17         12.9360    34.8970   -13.4570 o          1 IIX      -0.599100
     25 N18          9.6250    35.0210    -9.3770 nb         1 IIX      -0.655000
     26 H1          14.0490    33.6190   -16.9850 h1         1 IIX       0.070033
     27 H2          14.0890    33.2680   -15.2480 h1         1 IIX       0.070033
     28 H3          12.6990    34.1120   -15.9530 h1         1 IIX       0.070033
     29 H4           8.8770    33.3800    -8.4040 h4         1 IIX       0.023100
     30 H5           8.8370    38.2400    -8.7840 ha         1 IIX       0.116000
     31 H6           7.4190    34.6820    -6.8720 ha         1 IIX       0.126000
     32 H7           7.4100    37.1790    -7.0800 ha         1 IIX       0.120000
     33 H9          19.1420    40.3650   -14.6200 hc         1 IIX       0.063700
     34 H10         18.0900    37.5380   -14.3030 h1         1 IIX       0.060700
     35 H11         18.1990    38.4540   -15.8210 h1         1 IIX       0.060700
     36 H12         16.8150    41.1700   -14.4030 h1         1 IIX       0.060700
     37 H13         16.6860    40.3410   -12.8380 h1         1 IIX       0.060700
     38 H14         11.3430    35.1360   -11.5680 ha         1 IIX       0.180000
     39 H15         10.3470    38.9840   -10.2560 hn         1 IIX       0.372000
     40 H17         16.6230    37.2470   -16.8960 h4         1 IIX       0.042100
     41 N13         12.7990    37.1520   -13.2490 ns         1 IIX      -0.464400
     42 H8          18.9840    39.4920   -13.0850 hc         1 IIX       0.063700
     43 H16         13.1940    38.0450   -13.5740 hn         1 IIX       0.390500
@<TRIPOS>BOND
     1     1     4 ar  
     2     1    21 1   
     3     1    25 ar  
     4     2    18 1   
     5     2    26 1   
     6     2    27 1   
     7     2    28 1   
     8     3     5 ar  
     9     3    25 ar  
    10     3    29 1   
    11     4     6 ar  
    12     4    30 1   
    13     5     6 ar  
    14     5    31 1   
    15     6    32 1   
    16     7     8 1   
    17     7     9 1   
    18     7    33 1   
    19     7    42 1   
    20     8    11 1   
    21     8    34 1   
    22     8    35 1   
    23     9    11 1   
    24     9    36 1   
    25     9    37 1   
    26    10    11 1   
    27    10    12 2   
    28    10    14 1   
    29    13    14 2   
    30    13    15 1   
    31    13    18 1   
    32    14    22 1   
    33    15    24 2   
    34    15    41 1   
    35    16    17 1   
    36    16    21 2   
    37    16    38 1   
    38    17    23 2   
    39    17    41 1   
    40    18    19 1   
    41    19    22 2   
    42    20    21 1   
    43    20    23 1   
    44    20    39 1   
    45    22    40 1   
    46    41    43 1   
@<TRIPOS>SUBSTRUCTURE
     1 IIX         1 TEMP              0 ****  ****    0 ROOT
