@<TRIPOS>MOLECULE
IIY
   21    20     1     0     0
SMALL
No Charge or Current Charge


@<TRIPOS>ATOM
      1 C4         -27.3430    30.1770     8.4800 c          1 IIY       0.692500
      2 C5         -27.9670    29.0500     7.6230 c3         1 IIY       0.024000
      3 C6         -30.2480    28.1600     6.9870 c          1 IIY       0.603100
      4 C7         -31.7450    28.3550     7.1870 c3         1 IIY      -0.177100
      5 N1         -25.9580    30.1740     8.4320 ne         1 IIY      -0.684100
      6 N2         -29.4510    29.0500     7.6660 ns         1 IIY      -0.508900
      7 C3         -25.2300    31.2310     8.6240 cf         1 IIY       0.566500
      8 C1         -23.0300    30.0330     8.3560 c2         1 IIY      -0.226000
      9 C2         -23.7730    31.1500     8.5790 cf         1 IIY      -0.327600
     10 O1         -28.0070    30.9720     9.1320 o          1 IIY      -0.553100
     11 O2         -29.7850    27.2790     6.2780 o          1 IIY      -0.608100
     12 H1         -27.5850    28.0910     7.9930 h1         1 IIY       0.079700
     13 H2         -27.6270    29.1840     6.5880 h1         1 IIY       0.079700
     14 H3         -32.3440    27.6260     6.6290 hc         1 IIY       0.061367
     15 H4         -31.9690    28.3270     8.2590 hc         1 IIY       0.061367
     16 H5         -32.0090    29.3850     6.9200 hc         1 IIY       0.061367
     17 H6         -29.9210    29.7490     8.2320 hn         1 IIY       0.335500
     18 H7         -25.6800    32.2120     8.8070 h4         1 IIY      -0.017200
     19 H8         -23.4940    29.0590     8.1850 ha         1 IIY       0.177000
     20 H9         -21.9390    30.0710     8.3410 ha         1 IIY       0.177000
     21 H10        -23.2630    32.1000     8.7450 ha         1 IIY       0.185000
@<TRIPOS>BOND
     1     1     2 1   
     2     1     5 1   
     3     1    10 2   
     4     2     6 1   
     5     2    12 1   
     6     2    13 1   
     7     3     4 1   
     8     3     6 1   
     9     3    11 2   
    10     4    14 1   
    11     4    15 1   
    12     4    16 1   
    13     5     7 2   
    14     6    17 1   
    15     7     9 1   
    16     7    18 1   
    17     8     9 2   
    18     8    19 1   
    19     8    20 1   
    20     9    21 1   
@<TRIPOS>SUBSTRUCTURE
     1 IIY         1 TEMP              0 ****  ****    0 ROOT
