@<TRIPOS>MOLECULE
IIY
   21    20     1     0     0
SMALL
bcc


@<TRIPOS>ATOM
      1 C4         -27.3410    30.0690     8.5490 c          1 IIY       0.692500
      2 C5         -27.9680    28.9860     7.7060 c3         1 IIY       0.024000
      3 C6         -30.1950    28.2680     7.0320 c          1 IIY       0.670100
      4 C7         -31.6760    28.4720     7.2320 c3         1 IIY      -0.177100
      5 N1         -25.9600    30.0420     8.5210 ne         1 IIY      -0.684100
      6 N2         -29.3990    29.0550     7.7750 ns         1 IIY      -0.575900
      7 C3         -25.3040    31.1000     8.2620 cf         1 IIY       0.566500
      8 C1         -23.0710    30.1270     8.6360 c2         1 IIY      -0.126000
      9 C2         -23.8450    31.1610     8.3090 cf         1 IIY      -0.277600
     10 O1         -27.9850    30.8280     9.2360 o          1 IIY      -0.553100
     11 O2         -29.7530    27.4420     6.2470 o          1 IIY      -0.608100
     12 H1         -27.5850    28.0210     8.0540 h1         1 IIY       0.079700
     13 H2         -27.6080    29.1010     6.6780 h1         1 IIY       0.079700
     14 H3         -32.1380    28.7250     6.2780 hc         1 IIY       0.061367
     15 H4         -32.1270    27.5400     7.5730 hc         1 IIY       0.061367
     16 H5         -31.9170    29.2540     7.9500 hc         1 IIY       0.061367
     17 H6         -29.8020    29.7170     8.4190 hn         1 IIY       0.335500
     18 H7         -25.8080    32.0260     7.9760 h4         1 IIY      -0.017200
     19 H8         -23.4850    29.1570     8.8810 ha         1 IIY       0.127000
     20 H9         -21.9940    30.2240     8.6670 ha         1 IIY       0.127000
     21 H10        -23.4040    32.1190     8.0640 ha         1 IIY       0.135000
@<TRIPOS>BOND
     1     1     2 1   
     2     1     5 1   
     3     1    10 2   
     4     2     6 1   
     5     2    12 1   
     6     2    13 1   
     7     3     4 1   
     8     3     6 1   
     9     3    11 2   
    10     4    14 1   
    11     4    15 1   
    12     4    16 1   
    13     5     7 2   
    14     6    17 1   
    15     7     9 1   
    16     7    18 1   
    17     8     9 2   
    18     8    19 1   
    19     8    20 1   
    20     9    21 1   
@<TRIPOS>SUBSTRUCTURE
     1 IIY         1 TEMP              0 ****  ****    0 ROOT
