@<TRIPOS>MOLECULE
IJ0
   42    45     1     0     0
SMALL
No Charge or Current Charge


@<TRIPOS>ATOM
      1 C10         31.5840   -45.0000   -16.6370 c3         1 IJ0      -0.025900
      2 C11         29.3170   -43.0950   -18.1010 c3         1 IJ0       0.261500
      3 C15         30.6280   -47.3970   -11.0630 cg         1 IJ0      -0.130000
      4 C16         31.2210   -48.2950   -10.1280 cc         1 IJ0       0.497500
      5 C18         31.9500   -50.1480    -9.1530 cc         1 IJ0      -0.198000
      6 C19         32.2350   -49.0410    -8.3880 cd         1 IJ0       0.299500
      7 C22         32.9350   -49.0240    -7.0840 ca         1 IJ0      -0.108500
      8 C23         33.3960   -50.2240    -6.4960 ca         1 IJ0      -0.093000
      9 C24         34.0630   -50.2070    -5.2590 ca         1 IJ0      -0.114000
     10 C25         34.2790   -48.9920    -4.5900 ca         1 IJ0      -0.107000
     11 C26         33.8270   -47.7920    -5.1610 ca         1 IJ0      -0.114000
     12 C27         33.1600   -47.8070    -6.3990 ca         1 IJ0      -0.093000
     13 C1          27.6570   -44.5010   -13.6570 cc         1 IJ0      -0.014000
     14 C2          28.2150   -45.2830   -12.6770 cd         1 IJ0      -0.156000
     15 C3          29.5300   -45.8440   -12.8980 cd         1 IJ0       0.454000
     16 N4          30.2780   -45.6700   -13.9980 nc         1 IJ0      -0.442800
     17 C5          28.4260   -44.2990   -14.8310 cc         1 IJ0      -0.124000
     18 N6          29.6600   -44.8740   -14.9440 na         1 IJ0       0.231900
     19 C7          30.2280   -44.5540   -16.1500 cc         1 IJ0      -0.049300
     20 C8          29.2630   -43.7570   -16.7430 cd         1 IJ0      -0.054600
     21 N9          28.1510   -43.6060   -15.9190 nd         1 IJ0      -0.241600
     22 F12         30.3710   -42.2510   -18.2000 f          1 IJ0      -0.120500
     23 F13         29.4450   -44.0060   -19.0940 f          1 IJ0      -0.120500
     24 C14         30.1500   -46.6590   -11.9130 ch         1 IJ0      -0.210000
     25 N17         31.2980   -49.6670   -10.2690 na         1 IJ0      -0.139500
     26 N20         31.7790   -47.8910    -9.0010 nd         1 IJ0      -0.622000
     27 H31         31.6470   -46.0940   -16.6660 hc         1 IJ0       0.064033
     28 H30         31.7930   -44.6260   -17.6460 hc         1 IJ0       0.064033
     29 H32         32.3760   -44.6340   -15.9730 hc         1 IJ0       0.064033
     30 H33         28.3990   -42.5230   -18.2720 h2         1 IJ0       0.080700
     31 H34         32.1530   -51.1980    -8.9930 h4         1 IJ0       0.162000
     32 H35         31.0170   -51.5280   -11.2320 h1         1 IJ0       0.059367
     33 H36         29.6980   -50.3430   -11.4680 h1         1 IJ0       0.059367
     34 H37         31.2540   -50.1350   -12.3270 h1         1 IJ0       0.059367
     35 H38         33.2420   -51.1790    -6.9930 ha         1 IJ0       0.118500
     36 H39         34.4130   -51.1380    -4.8180 ha         1 IJ0       0.111500
     37 H40         34.7960   -48.9800    -3.6330 ha         1 IJ0       0.112000
     38 H41         33.9930   -46.8490    -4.6450 ha         1 IJ0       0.111500
     39 H42         32.8190   -46.8650    -6.8220 ha         1 IJ0       0.118500
     40 H28         26.6740   -44.0500   -13.5540 ha         1 IJ0       0.151000
     41 H29         27.6830   -45.4780   -11.7540 ha         1 IJ0       0.138000
     42 C21         30.7860   -50.4680   -11.3920 c3         1 IJ0       0.055900
@<TRIPOS>BOND
     1     1    19 1   
     2     1    27 1   
     3     1    28 1   
     4     1    29 1   
     5     2    20 1   
     6     2    22 1   
     7     2    23 1   
     8     2    30 1   
     9     3     4 1   
    10     3    24 3   
    11     4    25 1   
    12     4    26 2   
    13     5     6 2   
    14     5    25 1   
    15     5    31 1   
    16     6     7 1   
    17     6    26 1   
    18     7     8 ar  
    19     7    12 ar  
    20     8     9 ar  
    21     8    35 1   
    22     9    10 ar  
    23     9    36 1   
    24    10    11 ar  
    25    10    37 1   
    26    11    12 ar  
    27    11    38 1   
    28    12    39 1   
    29    13    14 2   
    30    13    17 1   
    31    13    40 1   
    32    14    15 1   
    33    14    41 1   
    34    15    16 2   
    35    15    24 1   
    36    16    18 1   
    37    17    18 1   
    38    17    21 2   
    39    18    19 1   
    40    19    20 2   
    41    20    21 1   
    42    25    42 1   
    43    32    42 1   
    44    33    42 1   
    45    34    42 1   
@<TRIPOS>SUBSTRUCTURE
     1 IJ0         1 TEMP              0 ****  ****    0 ROOT
