@<TRIPOS>MOLECULE
IJ0
   42    45     1     0     0
SMALL
abcg2


@<TRIPOS>ATOM
      1 C10         31.7930   -43.5450   -15.4890 c3         1 IJ0      -0.025900
      2 C11         29.5710   -42.8290   -17.8930 c3         1 IJ0       0.261500
      3 C15         30.5730   -47.6420   -11.2080 cg         1 IJ0      -0.130000
      4 C16         31.0310   -48.3540   -10.0820 cc         1 IJ0       0.497500
      5 C18         31.1260   -49.9310    -8.5850 cc         1 IJ0      -0.198000
      6 C19         32.1260   -49.0030    -8.3710 cd         1 IJ0       0.299500
      7 C22         33.1390   -48.9930    -7.3160 ca         1 IJ0      -0.108500
      8 C23         33.3620   -50.1220    -6.5240 ca         1 IJ0      -0.093000
      9 C24         34.3190   -50.1060    -5.5220 ca         1 IJ0      -0.114000
     10 C25         35.0760   -48.9630    -5.2950 ca         1 IJ0      -0.107000
     11 C26         34.8650   -47.8380    -6.0800 ca         1 IJ0      -0.114000
     12 C27         33.9070   -47.8510    -7.0820 ca         1 IJ0      -0.093000
     13 C1          27.7690   -46.1850   -14.8570 cc         1 IJ0      -0.014000
     14 C2          28.2960   -46.7940   -13.7630 cd         1 IJ0      -0.156000
     15 C3          29.6090   -46.4340   -13.3320 cd         1 IJ0       0.454000
     16 N4          30.3570   -45.5450   -13.9290 nc         1 IJ0      -0.442800
     17 C5          28.5580   -45.2260   -15.5170 cc         1 IJ0      -0.124000
     18 N6          29.8170   -44.9740   -14.9950 na         1 IJ0       0.231900
     19 C7          30.4230   -44.0320   -15.7730 cc         1 IJ0      -0.049300
     20 C8          29.4770   -43.7560   -16.7370 cd         1 IJ0      -0.054600
     21 N9          28.3440   -44.4840   -16.5770 nd         1 IJ0      -0.241600
     22 F12         30.2720   -41.7090   -17.5690 f          1 IJ0      -0.120500
     23 F13         30.2460   -43.4170   -18.9250 f          1 IJ0      -0.120500
     24 C14         30.1580   -47.0720   -12.1860 ch         1 IJ0      -0.210000
     25 N17         30.4400   -49.5070    -9.6700 na         1 IJ0      -0.139500
     26 N20         32.0480   -48.0290    -9.3120 nd         1 IJ0      -0.622000
     27 H31         32.4970   -44.3760   -15.4280 hc         1 IJ0       0.064033
     28 H30         32.1340   -42.8720   -16.2690 hc         1 IJ0       0.064033
     29 H32         31.8330   -43.0110   -14.5380 hc         1 IJ0       0.064033
     30 H33         28.5840   -42.5350   -18.2540 h2         1 IJ0       0.080700
     31 H34         30.8480   -50.8300    -8.0590 h4         1 IJ0       0.162000
     32 H35         29.0020   -50.9980    -9.6750 h1         1 IJ0       0.059367
     33 H36         28.4790   -49.4710   -10.3950 h1         1 IJ0       0.059367
     34 H37         29.5860   -50.5380   -11.2800 h1         1 IJ0       0.059367
     35 H38         32.7920   -51.0270    -6.6940 ha         1 IJ0       0.118500
     36 H39         34.4780   -50.9910    -4.9200 ha         1 IJ0       0.111500
     37 H40         35.8250   -48.9520    -4.5130 ha         1 IJ0       0.112000
     38 H41         35.4480   -46.9410    -5.9100 ha         1 IJ0       0.111500
     39 H42         33.7470   -46.9670    -7.6850 ha         1 IJ0       0.118500
     40 H28         26.7790   -46.4160   -15.2260 ha         1 IJ0       0.151000
     41 H29         27.7450   -47.5400   -13.2100 ha         1 IJ0       0.138000
     42 C21         29.3120   -50.1640   -10.2960 c3         1 IJ0       0.055900
@<TRIPOS>BOND
     1     1    19 1   
     2     1    27 1   
     3     1    28 1   
     4     1    29 1   
     5     2    20 1   
     6     2    22 1   
     7     2    23 1   
     8     2    30 1   
     9     3     4 1   
    10     3    24 3   
    11     4    25 1   
    12     4    26 2   
    13     5     6 2   
    14     5    25 1   
    15     5    31 1   
    16     6     7 1   
    17     6    26 1   
    18     7     8 ar  
    19     7    12 ar  
    20     8     9 ar  
    21     8    35 1   
    22     9    10 ar  
    23     9    36 1   
    24    10    11 ar  
    25    10    37 1   
    26    11    12 ar  
    27    11    38 1   
    28    12    39 1   
    29    13    14 2   
    30    13    17 1   
    31    13    40 1   
    32    14    15 1   
    33    14    41 1   
    34    15    16 2   
    35    15    24 1   
    36    16    18 1   
    37    17    18 1   
    38    17    21 2   
    39    18    19 1   
    40    19    20 2   
    41    20    21 1   
    42    25    42 1   
    43    32    42 1   
    44    33    42 1   
    45    34    42 1   
@<TRIPOS>SUBSTRUCTURE
     1 IJ0         1 TEMP              0 ****  ****    0 ROOT
