@<TRIPOS>MOLECULE
IJ1
   29    29     1     0     0
SMALL
abcg2


@<TRIPOS>ATOM
      1 CAA         -5.6430     1.8820    -0.0300 c3         1 IJ1      -0.040800
      2 CAM         -4.6590     0.7540     0.0870 ca         1 IJ1      -0.088300
      3 CAH         -3.3770     0.8660    -0.4520 ca         1 IJ1      -0.110000
      4 CAF         -5.0070    -0.4360     0.7190 ca         1 IJ1      -0.120000
      5 CAE         -4.0960    -1.4820     0.8080 ca         1 IJ1      -0.119000
      6 CAG         -2.8260    -1.3520     0.2700 ca         1 IJ1      -0.084000
      7 CAN         -2.4560    -0.1730    -0.3740 ca         1 IJ1      -0.070300
      8 CAK         -1.0750    -0.0290    -0.9520 c3         1 IJ1       0.199100
      9 NAL         -0.0650    -0.1400     0.0860 n7         1 IJ1      -0.861400
     10 CAI          1.2850    -0.0530    -0.4420 c3         1 IJ1       0.194800
     11 CAJ          2.2930    -0.1720     0.6880 c3         1 IJ1      -0.359400
     12 SAO          3.9990    -0.1840     0.1130 s6         1 IJ1       1.323600
     13 OAD          4.2020     1.0970    -0.5940 o          1 IJ1      -0.697867
     14 OAC          4.8160    -0.3080     1.3360 o          1 IJ1      -0.697867
     15 OAB          4.1130    -1.3560    -0.7790 o          1 IJ1      -0.697867
     16 H1          -6.2620     1.7730    -0.9230 hc         1 IJ1       0.034700
     17 H2          -6.3160     1.9160     0.8270 hc         1 IJ1       0.034700
     18 H3          -5.1410     2.8460    -0.1020 hc         1 IJ1       0.034700
     19 H4          -3.0870     1.7910    -0.9400 ha         1 IJ1       0.106000
     20 H5          -5.9950    -0.5460     1.1490 ha         1 IJ1       0.099000
     21 H6          -4.3810    -2.4010     1.3060 ha         1 IJ1       0.104000
     22 H7          -2.1150    -2.1660     0.3480 ha         1 IJ1       0.130000
     23 H8          -0.8980    -0.8300    -1.6770 h1         1 IJ1       0.032200
     24 H9          -1.0090     0.9140    -1.5160 h1         1 IJ1       0.032200
     25 H10         -0.2080     0.6050     0.7570 hn         1 IJ1       0.402000
     26 H12          1.4290    -0.8760    -1.1450 h1         1 IJ1       0.040200
     27 H13          1.4640     0.8770    -1.0000 h1         1 IJ1       0.040200
     28 H14          2.1950     0.6620     1.3870 h1         1 IJ1       0.070200
     29 H15          2.1320    -1.0970     1.2450 h1         1 IJ1       0.070200
@<TRIPOS>BOND
     1     1     2 1   
     2     1    16 1   
     3     1    17 1   
     4     1    18 1   
     5     2     3 ar  
     6     2     4 ar  
     7     3     7 ar  
     8     3    19 1   
     9     4     5 ar  
    10     4    20 1   
    11     5     6 ar  
    12     5    21 1   
    13     6     7 ar  
    14     6    22 1   
    15     7     8 1   
    16     8     9 1   
    17     8    23 1   
    18     8    24 1   
    19     9    10 1   
    20     9    25 1   
    21    10    11 1   
    22    10    26 1   
    23    10    27 1   
    24    11    12 1   
    25    11    28 1   
    26    11    29 1   
    27    12    13 1   
    28    12    14 1   
    29    12    15 1   
@<TRIPOS>SUBSTRUCTURE
     1 IJ1         1 TEMP              0 ****  ****    0 ROOT
