@<TRIPOS>MOLECULE
IJ1
   29    29     1     0     0
SMALL
No Charge or Current Charge


@<TRIPOS>ATOM
      1 CAA         -5.3770     2.0630     0.2190 c3         1 IJ1      -0.040800
      2 CAM         -4.5500     0.7870     0.1740 ca         1 IJ1      -0.088300
      3 CAH         -3.2600     0.7980    -0.3910 ca         1 IJ1      -0.110000
      4 CAF         -5.0710    -0.4150     0.6900 ca         1 IJ1      -0.120000
      5 CAE         -4.3070    -1.5930     0.6450 ca         1 IJ1      -0.119000
      6 CAG         -3.0190    -1.5760     0.0820 ca         1 IJ1      -0.084000
      7 CAN         -2.4890    -0.3810    -0.4410 ca         1 IJ1      -0.070300
      8 CAK         -1.0960    -0.3660    -1.0580 c3         1 IJ1       0.199100
      9 NAL         -0.0640    -0.2320    -0.0160 n7         1 IJ1      -0.861400
     10 CAI          1.3160    -0.1590    -0.5110 c3         1 IJ1       0.194800
     11 CAJ          2.2380     0.0130     0.6950 c3         1 IJ1      -0.359400
     12 SAO          3.9680     0.1000     0.2030 s6         1 IJ1       1.323600
     13 OAD          4.0270     1.2740    -0.6800 o          1 IJ1      -0.697867
     14 OAC          4.6780     0.2640     1.4800 o          1 IJ1      -0.697867
     15 OAB          4.2130    -1.1840    -0.4680 o          1 IJ1      -0.697867
     16 H1          -5.9650     2.1800    -0.6990 hc         1 IJ1       0.034700
     17 H2          -6.0740     2.0590     1.0660 hc         1 IJ1       0.034700
     18 H3          -4.7390     2.9490     0.3240 hc         1 IJ1       0.034700
     19 H4          -2.8560     1.7240    -0.7940 ha         1 IJ1       0.106000
     20 H5          -6.0670    -0.4360     1.1260 ha         1 IJ1       0.099000
     21 H6          -4.7120    -2.5190     1.0460 ha         1 IJ1       0.104000
     22 H7          -2.4310    -2.4910     0.0520 ha         1 IJ1       0.130000
     23 H8          -0.9460    -1.2940    -1.6280 h1         1 IJ1       0.032200
     24 H9          -1.0290     0.4680    -1.7710 h1         1 IJ1       0.032200
     25 H10         -0.2570     0.6300     0.5040 hn         1 IJ1       0.402000
     26 H12          1.5780    -1.0780    -1.0560 h1         1 IJ1       0.040200
     27 H13          1.4360     0.6920    -1.1970 h1         1 IJ1       0.040200
     28 H14          2.0170     0.9430     1.2280 h1         1 IJ1       0.070200
     29 H15          2.1490    -0.8380     1.3770 h1         1 IJ1       0.070200
@<TRIPOS>BOND
     1     1     2 1   
     2     1    16 1   
     3     1    17 1   
     4     1    18 1   
     5     2     3 ar  
     6     2     4 ar  
     7     3     7 ar  
     8     3    19 1   
     9     4     5 ar  
    10     4    20 1   
    11     5     6 ar  
    12     5    21 1   
    13     6     7 ar  
    14     6    22 1   
    15     7     8 1   
    16     8     9 1   
    17     8    23 1   
    18     8    24 1   
    19     9    10 1   
    20     9    25 1   
    21    10    11 1   
    22    10    26 1   
    23    10    27 1   
    24    11    12 1   
    25    11    28 1   
    26    11    29 1   
    27    12    13 1   
    28    12    14 1   
    29    12    15 1   
@<TRIPOS>SUBSTRUCTURE
     1 IJ1         1 TEMP              0 ****  ****    0 ROOT
