@<TRIPOS>MOLECULE
IJ2
   23    23     1     0     0
SMALL
No Charge or Current Charge


@<TRIPOS>ATOM
      1 CAF         -3.8550     1.1620     0.1650 cc         1 IJ2      -0.206000
      2 CAD         -5.1090     0.7060     0.6110 cc         1 IJ2      -0.196000
      3 CAE         -5.1430    -0.6390     0.3610 cd         1 IJ2       0.107900
      4 OAK         -3.9730    -1.0710    -0.2240 os         1 IJ2      -0.214000
      5 CAL         -3.2000     0.0650    -0.3290 cd         1 IJ2       0.151300
      6 CAI         -1.8210    -0.0390    -0.9460 c3         1 IJ2       0.124500
      7 NAJ         -0.7300     0.0320     0.0550 n7         1 IJ2      -0.853400
      8 CAG          0.6300    -0.0410    -0.4950 c3         1 IJ2       0.193800
      9 CAH          1.6130     0.0730     0.6670 c3         1 IJ2      -0.358400
     10 SAM          3.3210    -0.0200     0.1070 s6         1 IJ2       1.322600
     11 OAC          3.4150    -1.3380    -0.5360 o          1 IJ2      -0.697533
     12 OAB          3.4550     1.1200    -0.8120 o          1 IJ2      -0.697533
     13 OAA          4.0960     0.1070     1.3500 o          1 IJ2      -0.697533
     14 H1          -3.4890     2.1830     0.2080 ha         1 IJ2       0.134000
     15 H2          -5.8900     1.3110     1.0620 ha         1 IJ2       0.129000
     16 H3          -5.9140    -1.3750     0.5460 h4         1 IJ2       0.043100
     17 H4          -1.7620    -0.9850    -1.5030 h1         1 IJ2       0.043200
     18 H5          -1.7170     0.7730    -1.6790 h1         1 IJ2       0.043200
     19 H6          -0.8160     0.9210     0.5620 hn         1 IJ2       0.402000
     20 H7           0.7800    -0.9940    -1.0230 h1         1 IJ2       0.041200
     21 H8           1.5040     1.0330     1.1810 h1         1 IJ2       0.071700
     22 H9           0.8010     0.7770    -1.2100 h1         1 IJ2       0.041200
     23 H10          1.4720    -0.7480     1.3770 h1         1 IJ2       0.071700
@<TRIPOS>BOND
     1     1     2 1   
     2     1     5 2   
     3     1    14 1   
     4     2     3 2   
     5     2    15 1   
     6     3     4 1   
     7     3    16 1   
     8     4     5 1   
     9     5     6 1   
    10     6     7 1   
    11     6    17 1   
    12     6    18 1   
    13     7     8 1   
    14     7    19 1   
    15     8     9 1   
    16     8    20 1   
    17     8    22 1   
    18     9    10 1   
    19     9    21 1   
    20     9    23 1   
    21    10    11 1   
    22    10    12 1   
    23    10    13 1   
@<TRIPOS>SUBSTRUCTURE
     1 IJ2         1 TEMP              0 ****  ****    0 ROOT
