@<TRIPOS>MOLECULE
IJ2
   23    23     1     0     0
SMALL
abcg2


@<TRIPOS>ATOM
      1 CAF         -4.1360     1.1520    -0.3230 cc         1 IJ2      -0.206000
      2 CAD         -5.2260     0.5680     0.3940 cc         1 IJ2      -0.196000
      3 CAE         -4.8110    -0.6670     0.7550 cd         1 IJ2       0.107900
      4 OAK         -3.5540    -0.8860     0.3140 os         1 IJ2      -0.214000
      5 CAL         -3.1480     0.2250    -0.3430 cd         1 IJ2       0.151300
      6 CAI         -1.7800     0.2330    -0.9200 c3         1 IJ2       0.124500
      7 NAJ         -0.7660     0.1220     0.1150 n7         1 IJ2      -0.853400
      8 CAG          0.5780     0.0840    -0.4320 c3         1 IJ2       0.193800
      9 CAH          1.5890    -0.0870     0.6890 c3         1 IJ2      -0.358400
     10 SAM          3.2860    -0.1860     0.0970 s6         1 IJ2       1.322600
     11 OAC          3.3240    -1.3440    -0.8210 o          1 IJ2      -0.697533
     12 OAB          3.5540     1.0950    -0.5870 o          1 IJ2      -0.697533
     13 OAA          4.1070    -0.3810     1.3080 o          1 IJ2      -0.697533
     14 H1          -4.0940     2.1340    -0.7660 ha         1 IJ2       0.134000
     15 H2          -6.1850     1.0110     0.6110 ha         1 IJ2       0.129000
     16 H3          -5.2770    -1.4680     1.3060 h4         1 IJ2       0.043100
     17 H4          -1.6580    -0.6130    -1.6050 h1         1 IJ2       0.043200
     18 H5          -1.6840     1.1390    -1.5340 h1         1 IJ2       0.043200
     19 H6          -0.8480     0.9210     0.7340 hn         1 IJ2       0.402000
     20 H7           0.6470    -0.7670    -1.1130 h1         1 IJ2       0.041200
     21 H8           1.5410     0.7510     1.3880 h1         1 IJ2       0.071700
     22 H9           0.8240     0.9810    -1.0180 h1         1 IJ2       0.041200
     23 H10          1.3840    -1.0030     1.2470 h1         1 IJ2       0.071700
@<TRIPOS>BOND
     1     1     2 1   
     2     1     5 2   
     3     1    14 1   
     4     2     3 2   
     5     2    15 1   
     6     3     4 1   
     7     3    16 1   
     8     4     5 1   
     9     5     6 1   
    10     6     7 1   
    11     6    17 1   
    12     6    18 1   
    13     7     8 1   
    14     7    19 1   
    15     8     9 1   
    16     8    20 1   
    17     8    22 1   
    18     9    10 1   
    19     9    21 1   
    20     9    23 1   
    21    10    11 1   
    22    10    12 1   
    23    10    13 1   
@<TRIPOS>SUBSTRUCTURE
     1 IJ2         1 TEMP              0 ****  ****    0 ROOT
