@<TRIPOS>MOLECULE
IJ3
   34    33     1     0     0
SMALL
abcg2


@<TRIPOS>ATOM
      1 C4         -28.0490    43.7570    10.7690 c          1 IJ3       0.601100
      2 C5         -29.1420    43.7660     8.5700 c3         1 IJ3       0.103000
      3 C6         -29.6030    44.8140     7.5670 c3         1 IJ3      -0.093400
      4 C7         -30.6980    45.7510     8.0270 c3         1 IJ3       0.098600
      5 C8         -27.4850    45.7070    12.3060 c3         1 IJ3      -0.067700
      6 C9         -28.8280    45.4890    12.9960 c3         1 IJ3      -0.090100
      7 C10        -26.4620    46.2210    13.3190 c3         1 IJ3      -0.090100
      8 N1         -25.7830    44.7200    10.8610 ns         1 IJ3      -0.521900
      9 N2         -28.2180    44.2900     9.5500 ns         1 IJ3      -0.495900
     10 C3         -26.9710    44.4230    11.6300 c3         1 IJ3       0.035700
     11 C1         -23.8260    44.2070     9.5300 c3         1 IJ3      -0.179100
     12 C2         -25.0400    43.7480    10.2950 c          1 IJ3       0.591100
     13 O1         -25.3430    42.5680    10.3910 o          1 IJ3      -0.586100
     14 O2         -28.7280    42.8380    11.2060 o          1 IJ3      -0.594100
     15 BR1        -30.1090    47.0860     9.3540 br         1 IJ3      -0.282000
     16 H1         -30.0050    43.3450     9.0870 h1         1 IJ3       0.057700
     17 H2         -28.6740    42.9440     8.0190 h1         1 IJ3       0.057700
     18 H3         -30.0290    44.2750     6.7150 hc         1 IJ3       0.054700
     19 H4         -28.7530    45.3730     7.1680 hc         1 IJ3       0.054700
     20 H5         -31.5200    45.2060     8.4900 h1         1 IJ3       0.073700
     21 H6         -31.0870    46.3290     7.1910 h1         1 IJ3       0.073700
     22 H7         -27.6220    46.4670    11.5280 hc         1 IJ3       0.049700
     23 H8         -29.1190    46.3950    13.5280 hc         1 IJ3       0.040867
     24 H9         -29.6280    45.2550    12.2960 hc         1 IJ3       0.040867
     25 H10        -28.7680    44.6800    13.7260 hc         1 IJ3       0.040867
     26 H11        -26.8220    47.1370    13.7880 hc         1 IJ3       0.040867
     27 H12        -26.3030    45.4830    14.1080 hc         1 IJ3       0.040867
     28 H13        -25.4930    46.4470    12.8730 hc         1 IJ3       0.040867
     29 H14        -25.5030    45.6820    10.7500 hn         1 IJ3       0.316500
     30 H15        -27.5580    44.9850     9.2390 hn         1 IJ3       0.311500
     31 H16        -26.7270    43.7000    12.4150 h1         1 IJ3       0.095700
     32 H17        -23.9320    43.9230     8.4830 hc         1 IJ3       0.060367
     33 H18        -23.6560    45.2810     9.5790 hc         1 IJ3       0.060367
     34 H19        -22.9420    43.6980     9.9150 hc         1 IJ3       0.060367
@<TRIPOS>BOND
     1     1     9 1   
     2     1    10 1   
     3     1    14 2   
     4     2     3 1   
     5     2     9 1   
     6     2    16 1   
     7     2    17 1   
     8     3     4 1   
     9     3    18 1   
    10     3    19 1   
    11     4    15 1   
    12     4    20 1   
    13     4    21 1   
    14     5     6 1   
    15     5     7 1   
    16     5    10 1   
    17     5    22 1   
    18     6    23 1   
    19     6    24 1   
    20     6    25 1   
    21     7    26 1   
    22     7    27 1   
    23     7    28 1   
    24     8    10 1   
    25     8    12 1   
    26     8    29 1   
    27     9    30 1   
    28    10    31 1   
    29    11    12 1   
    30    11    32 1   
    31    11    33 1   
    32    11    34 1   
    33    12    13 2   
@<TRIPOS>SUBSTRUCTURE
     1 IJ3         1 TEMP              0 ****  ****    0 ROOT
