@<TRIPOS>MOLECULE
IJ3
   34    33     1     0     0
SMALL
No Charge or Current Charge


@<TRIPOS>ATOM
      1 C4         -28.3060    44.0000    10.5300 c          1 IJ3       0.601100
      2 C5         -28.9650    43.6900     8.1060 c3         1 IJ3       0.103000
      3 C6         -29.8090    44.8210     7.4750 c3         1 IJ3      -0.093400
      4 C7         -30.8130    45.5080     8.4280 c3         1 IJ3       0.098600
      5 C8         -27.5130    45.7890    12.2840 c3         1 IJ3      -0.067700
      6 C9         -28.8270    45.6730    13.0960 c3         1 IJ3      -0.090100
      7 C10        -26.3550    46.2250    13.2180 c3         1 IJ3      -0.090100
      8 N1         -25.8860    44.6720    10.7430 ns         1 IJ3      -0.521900
      9 N2         -28.0700    44.1450     9.1750 ns         1 IJ3      -0.495900
     10 C3         -27.1640    44.4920    11.4820 c3         1 IJ3       0.035700
     11 C1         -23.6720    44.1370     9.8610 c3         1 IJ3      -0.179100
     12 C2         -24.9380    43.6880    10.5760 c          1 IJ3       0.591100
     13 O1         -25.1070    42.5430    10.9640 o          1 IJ3      -0.586100
     14 O2         -29.3160    43.4430    10.9420 o          1 IJ3      -0.594100
     15 Br1        -29.9820    46.9600     9.5160 br         1 IJ3      -0.282000
     16 H1         -29.6330    42.9070     8.4900 h1         1 IJ3       0.057700
     17 H2         -28.3470    43.2320     7.3220 h1         1 IJ3       0.057700
     18 H3         -30.3800    44.3780     6.6500 hc         1 IJ3       0.054700
     19 H4         -29.1510    45.5740     7.0250 hc         1 IJ3       0.054700
     20 H5         -31.2660    44.7870     9.1200 h1         1 IJ3       0.073700
     21 H6         -31.6070    45.9950     7.8470 h1         1 IJ3       0.073700
     22 H7         -27.6560    46.5970    11.5560 hc         1 IJ3       0.049700
     23 H8         -28.9950    46.5780    13.6920 hc         1 IJ3       0.040867
     24 H9         -29.6960    45.5570    12.4380 hc         1 IJ3       0.040867
     25 H10        -28.7910    44.8170    13.7800 hc         1 IJ3       0.040867
     26 H11        -26.6240    47.1310    13.7740 hc         1 IJ3       0.040867
     27 H12        -26.1220    45.4360    13.9440 hc         1 IJ3       0.040867
     28 H13        -25.4430    46.4500    12.6530 hc         1 IJ3       0.040867
     29 H14        -25.6400    45.6000    10.4140 hn         1 IJ3       0.316500
     30 H15        -27.1940    44.5840     8.9200 hn         1 IJ3       0.311500
     31 H16        -27.0250    43.6820    12.2100 h1         1 IJ3       0.095700
     32 H17        -23.9450    44.5830     8.8970 hc         1 IJ3       0.060367
     33 H18        -23.2420    44.9890    10.3990 hc         1 IJ3       0.060367
     34 H19        -22.9450    43.3260     9.7400 hc         1 IJ3       0.060367
@<TRIPOS>BOND
     1     1     9 1   
     2     1    10 1   
     3     1    14 2   
     4     2     3 1   
     5     2     9 1   
     6     2    16 1   
     7     2    17 1   
     8     3     4 1   
     9     3    18 1   
    10     3    19 1   
    11     4    15 1   
    12     4    20 1   
    13     4    21 1   
    14     5     6 1   
    15     5     7 1   
    16     5    10 1   
    17     5    22 1   
    18     6    23 1   
    19     6    24 1   
    20     6    25 1   
    21     7    26 1   
    22     7    27 1   
    23     7    28 1   
    24     8    10 1   
    25     8    12 1   
    26     8    29 1   
    27     9    30 1   
    28    10    31 1   
    29    11    12 1   
    30    11    32 1   
    31    11    33 1   
    32    11    34 1   
    33    12    13 2   
@<TRIPOS>SUBSTRUCTURE
     1 IJ3         1 TEMP              0 ****  ****    0 ROOT
