@<TRIPOS>MOLECULE
IJ4
   29    29     1     0     0
SMALL
abcg2


@<TRIPOS>ATOM
      1 OAD         -5.2330    -0.5840    -1.3640 o          1 IJ4      -0.697200
      2 SAP         -4.4570    -0.3000    -0.1400 s6         1 IJ4       1.322600
      3 OAB         -4.7340     1.0380     0.4210 o          1 IJ4      -0.697200
      4 OAC         -4.5460    -1.3770     0.8670 o          1 IJ4      -0.697200
      5 CAJ         -2.7350    -0.2700    -0.6660 c3         1 IJ4      -0.359400
      6 CAI         -1.7740     0.0190     0.4730 c3         1 IJ4       0.194800
      7 NAL         -0.4040    -0.0760     0.0050 n7         1 IJ4      -0.864400
      8 CAK          0.5650     0.1570     1.0600 c3         1 IJ4       0.202100
      9 CAO          1.9690    -0.0330     0.5530 ca         1 IJ4      -0.084300
     10 CAH          2.9150     0.9800     0.6580 ca         1 IJ4      -0.089000
     11 CAM          4.2240     0.8300     0.2020 ca         1 IJ4      -0.125300
     12 CAA          5.2390     1.9280     0.3120 c3         1 IJ4      -0.034800
     13 CAN          4.5430    -0.3900    -0.3730 ca         1 IJ4       0.154000
     14 FAE          5.7980    -0.5740    -0.8270 f          1 IJ4      -0.195000
     15 CAF          3.6350    -1.4230    -0.5040 ca         1 IJ4      -0.158000
     16 CAG          2.3420    -1.2360    -0.0410 ca         1 IJ4      -0.060000
     17 H1          -2.5140    -1.2430    -1.1100 h1         1 IJ4       0.070700
     18 H2          -2.0100     0.9970     0.9150 h1         1 IJ4       0.041200
     19 H3          -0.2530     0.6060    -0.7300 hn         1 IJ4       0.402000
     20 H4           0.4740     1.1520     1.5200 h1         1 IJ4       0.033700
     21 H5           0.3670    -0.5660     1.8580 h1         1 IJ4       0.033700
     22 H6           2.6300     1.9240     1.1090 ha         1 IJ4       0.111000
     23 H7           6.1180     1.6110     0.8740 hc         1 IJ4       0.040367
     24 H8           5.5850     2.2560    -0.6690 hc         1 IJ4       0.040367
     25 H9           4.8160     2.7930     0.8200 hc         1 IJ4       0.040367
     26 H10          3.9360    -2.3560    -0.9610 ha         1 IJ4       0.125000
     27 H11          1.6180    -2.0340    -0.1430 ha         1 IJ4       0.138000
     28 H13         -2.6500     0.4850    -1.4510 h1         1 IJ4       0.070700
     29 H14         -1.9140    -0.7260     1.2610 h1         1 IJ4       0.041200
@<TRIPOS>BOND
     1     1     2 1   
     2     2     3 1   
     3     2     4 1   
     4     2     5 1   
     5     5     6 1   
     6     5    17 1   
     7     5    28 1   
     8     6     7 1   
     9     6    18 1   
    10     6    29 1   
    11     7     8 1   
    12     7    19 1   
    13     8     9 1   
    14     8    20 1   
    15     8    21 1   
    16     9    10 ar  
    17     9    16 ar  
    18    10    11 ar  
    19    10    22 1   
    20    11    12 1   
    21    11    13 ar  
    22    12    23 1   
    23    12    24 1   
    24    12    25 1   
    25    13    14 1   
    26    13    15 ar  
    27    15    16 ar  
    28    15    26 1   
    29    16    27 1   
@<TRIPOS>SUBSTRUCTURE
     1 IJ4         1 TEMP              0 ****  ****    0 ROOT
