@<TRIPOS>MOLECULE
IJ4
   29    29     1     0     0
SMALL
No Charge or Current Charge


@<TRIPOS>ATOM
      1 OAD         -5.0730     0.0710    -1.5990 o          1 IJ4      -0.697200
      2 SAP         -4.4180     0.0350    -0.2840 s6         1 IJ4       1.322600
      3 OAB         -4.5340     1.2820     0.4860 o          1 IJ4      -0.697200
      4 OAC         -4.6720    -1.1880     0.4900 o          1 IJ4      -0.697200
      5 CAJ         -2.6670    -0.0620    -0.6910 c3         1 IJ4      -0.359400
      6 CAI         -1.7970    -0.1080     0.5630 c3         1 IJ4       0.194800
      7 NAL         -0.3960    -0.1980     0.1340 n7         1 IJ4      -0.864400
      8 CAK          0.5920    -0.2200     1.2270 c3         1 IJ4       0.202100
      9 CAO          2.0070    -0.2710     0.6680 ca         1 IJ4      -0.084300
     10 CAH          2.7860     0.9020     0.5900 ca         1 IJ4      -0.089000
     11 CAM          4.0990     0.8590     0.0780 ca         1 IJ4      -0.125300
     12 CAA          4.9340     2.1310    -0.0020 c3         1 IJ4      -0.034800
     13 CAN          4.6260    -0.3740    -0.3580 ca         1 IJ4       0.154000
     14 FAE          5.8820    -0.4410    -0.8540 f          1 IJ4      -0.195000
     15 CAF          3.8560    -1.5450    -0.2850 ca         1 IJ4      -0.158000
     16 CAG          2.5480    -1.4950     0.2270 ca         1 IJ4      -0.060000
     17 H1          -2.5350    -0.9680    -1.2900 h1         1 IJ4       0.070700
     18 H2          -1.9600     0.7990     1.1630 h1         1 IJ4       0.041200
     19 H3          -0.1930     0.6180    -0.4520 hn         1 IJ4       0.402000
     20 H4           0.4850     0.6750     1.8570 h1         1 IJ4       0.033700
     21 H5           0.4300    -1.0940     1.8720 h1         1 IJ4       0.033700
     22 H6           2.3680     1.8470     0.9290 ha         1 IJ4       0.111000
     23 H7           5.8520     2.0350     0.5900 hc         1 IJ4       0.040367
     24 H8           5.2240     2.3450    -1.0380 hc         1 IJ4       0.040367
     25 H9           4.3870     3.0030     0.3740 hc         1 IJ4       0.040367
     26 H10          4.2720    -2.4890    -0.6260 ha         1 IJ4       0.125000
     27 H11          1.9510    -2.4030     0.2800 ha         1 IJ4       0.138000
     28 H13         -2.4370     0.8210    -1.2960 h1         1 IJ4       0.070700
     29 H14         -2.0690    -0.9790     1.1770 h1         1 IJ4       0.041200
@<TRIPOS>BOND
     1     1     2 1   
     2     2     3 1   
     3     2     4 1   
     4     2     5 1   
     5     5     6 1   
     6     5    17 1   
     7     5    28 1   
     8     6     7 1   
     9     6    18 1   
    10     6    29 1   
    11     7     8 1   
    12     7    19 1   
    13     8     9 1   
    14     8    20 1   
    15     8    21 1   
    16     9    10 ar  
    17     9    16 ar  
    18    10    11 ar  
    19    10    22 1   
    20    11    12 1   
    21    11    13 ar  
    22    12    23 1   
    23    12    24 1   
    24    12    25 1   
    25    13    14 1   
    26    13    15 ar  
    27    15    16 ar  
    28    15    26 1   
    29    16    27 1   
@<TRIPOS>SUBSTRUCTURE
     1 IJ4         1 TEMP              0 ****  ****    0 ROOT
