@<TRIPOS>MOLECULE
IJ5
   17    17     1     0     0
SMALL
No Charge or Current Charge


@<TRIPOS>ATOM
      1 N1         -11.0430    50.4960    -3.4770 n1         1 IJ5      -0.434000
      2 C1         -11.1480    51.0970    -2.4820 c1         1 IJ5       0.305900
      3 C2         -11.2460    51.8590    -1.2160 c3         1 IJ5       0.297700
      4 O1         -12.4520    51.5420    -0.4920 oh         1 IJ5      -0.636000
      5 C3         -11.1790    53.3680    -1.4970 ca         1 IJ5      -0.130300
      6 C4         -12.3440    54.0640    -1.8990 ca         1 IJ5      -0.079000
      7 C5         -12.3000    55.4430    -2.1700 ca         1 IJ5      -0.110000
      8 C6         -11.0920    56.1450    -2.0500 ca         1 IJ5      -0.090000
      9 C7          -9.9260    55.4650    -1.6640 ca         1 IJ5      -0.103000
     10 C8          -9.9620    54.0870    -1.3920 ca         1 IJ5       0.133000
     11 Cl1         -8.4530    53.2950    -0.9360 cl         1 IJ5      -0.197000
     12 H1         -10.3860    51.5600    -0.6060 h1         1 IJ5       0.072700
     13 H2         -12.4360    52.0910     0.3220 ho         1 IJ5       0.459000
     14 H3         -13.2910    53.5370    -2.0070 ha         1 IJ5       0.132000
     15 H4         -13.2040    55.9650    -2.4750 ha         1 IJ5       0.122000
     16 H5         -11.0570    57.2120    -2.2600 ha         1 IJ5       0.122000
     17 H6          -8.9870    56.0070    -1.5790 ha         1 IJ5       0.133000
@<TRIPOS>BOND
     1     1     2 3   
     2     2     3 1   
     3     3     4 1   
     4     3     5 1   
     5     3    12 1   
     6     4    13 1   
     7     5     6 ar  
     8     5    10 ar  
     9     6     7 ar  
    10     6    14 1   
    11     7     8 ar  
    12     7    15 1   
    13     8     9 ar  
    14     8    16 1   
    15     9    10 ar  
    16     9    17 1   
    17    10    11 1   
@<TRIPOS>SUBSTRUCTURE
     1 IJ5         1 TEMP              0 ****  ****    0 ROOT
