@<TRIPOS>MOLECULE
IJ5
   17    17     1     0     0
SMALL
abcg2


@<TRIPOS>ATOM
      1 N1         -10.5370    50.5450    -3.2410 n1         1 IJ5      -0.434000
      2 C1         -10.8700    51.1480    -2.3210 c1         1 IJ5       0.305900
      3 C2         -11.3010    51.9280    -1.1490 c3         1 IJ5       0.297700
      4 O1         -12.5890    51.4940    -0.8420 oh         1 IJ5      -0.636000
      5 C3         -11.2130    53.4090    -1.4840 ca         1 IJ5      -0.130300
      6 C4         -12.3650    54.1430    -1.7360 ca         1 IJ5      -0.079000
      7 C5         -12.2950    55.4970    -2.0270 ca         1 IJ5      -0.110000
      8 C6         -11.0650    56.1350    -2.0710 ca         1 IJ5      -0.090000
      9 C7          -9.9020    55.4190    -1.8300 ca         1 IJ5      -0.103000
     10 C8          -9.9880    54.0660    -1.5440 ca         1 IJ5       0.133000
     11 CL1         -8.5220    53.1800    -1.2700 cl         1 IJ5      -0.197000
     12 H1         -10.5910    51.7000    -0.3430 h1         1 IJ5       0.072700
     13 H2         -12.7960    51.7710     0.0580 ho         1 IJ5       0.459000
     14 H3         -13.3280    53.6510    -1.7010 ha         1 IJ5       0.132000
     15 H4         -13.2040    56.0510    -2.2200 ha         1 IJ5       0.122000
     16 H5         -11.0020    57.1920    -2.2940 ha         1 IJ5       0.122000
     17 H6          -8.9370    55.9060    -1.8650 ha         1 IJ5       0.133000
@<TRIPOS>BOND
     1     1     2 3   
     2     2     3 1   
     3     3     4 1   
     4     3     5 1   
     5     3    12 1   
     6     4    13 1   
     7     5     6 ar  
     8     5    10 ar  
     9     6     7 ar  
    10     6    14 1   
    11     7     8 ar  
    12     7    15 1   
    13     8     9 ar  
    14     8    16 1   
    15     9    10 ar  
    16     9    17 1   
    17    10    11 1   
@<TRIPOS>SUBSTRUCTURE
     1 IJ5         1 TEMP              0 ****  ****    0 ROOT
