@<TRIPOS>MOLECULE
IJ6
   32    32     1     0     0
SMALL
abcg2


@<TRIPOS>ATOM
      1 CAH         -3.1170     1.1010     0.3160 c6         1 IJ6      -0.071900
      2 CAE         -4.5130     1.5120    -0.1440 c6         1 IJ6      -0.072400
      3 CAD         -5.5590     0.4740     0.2440 c6         1 IJ6      -0.072400
      4 CAF         -5.1780    -0.9080    -0.2760 c6         1 IJ6      -0.072400
      5 CAI         -3.7830    -1.3120     0.1880 c6         1 IJ6      -0.071900
      6 CAM         -2.7240    -0.2830    -0.2060 c6         1 IJ6      -0.064700
      7 CAK         -1.3480    -0.7250     0.2820 c3         1 IJ6       0.163800
      8 NAL         -0.2770     0.0950    -0.2540 n7         1 IJ6      -0.865400
      9 CAG          1.0370    -0.3470     0.1740 c3         1 IJ6       0.195800
     10 CAJ          2.1130     0.4830    -0.5040 c3         1 IJ6      -0.358400
     11 SAN          3.7820    -0.0370    -0.0790 s6         1 IJ6       1.324600
     12 OAC          4.6720     0.8440    -0.8610 o          1 IJ6      -0.698867
     13 OAB          3.9120     0.1550     1.3790 o          1 IJ6      -0.698867
     14 OAA          3.8730    -1.4550    -0.4840 o          1 IJ6      -0.698867
     15 H1          -2.3940     1.8560    -0.0070 hc         1 IJ6       0.038200
     16 H2          -3.0850     1.0870     1.4120 hc         1 IJ6       0.038200
     17 H3          -4.7720     2.4870     0.2770 hc         1 IJ6       0.032450
     18 H4          -4.5130     1.6360    -1.2330 hc         1 IJ6       0.032450
     19 H5          -5.6470     0.4390     1.3360 hc         1 IJ6       0.030200
     20 H6          -6.5410     0.7650    -0.1370 hc         1 IJ6       0.030200
     21 H7          -5.9110    -1.6520     0.0470 hc         1 IJ6       0.032450
     22 H8          -5.2050    -0.9010    -1.3720 hc         1 IJ6       0.032450
     23 H9          -3.7810    -1.4290     1.2780 hc         1 IJ6       0.038200
     24 H10         -3.5180    -2.2890    -0.2270 hc         1 IJ6       0.038200
     25 H11         -2.6850    -0.2380    -1.3020 hc         1 IJ6       0.059700
     26 H12         -1.3490    -0.7540     1.3850 h1         1 IJ6       0.023200
     27 H13         -1.1730    -1.7540    -0.0480 h1         1 IJ6       0.023200
     28 H14         -0.4070     1.0530     0.0490 hn         1 IJ6       0.395000
     29 H16          1.1670    -0.3050     1.2650 h1         1 IJ6       0.039200
     30 H17          1.1560    -1.3940    -0.1150 h1         1 IJ6       0.039200
     31 H18          2.0160     0.4100    -1.5900 h1         1 IJ6       0.069700
     32 H19          2.0250     1.5380    -0.2310 h1         1 IJ6       0.069700
@<TRIPOS>BOND
     1     1     2 1   
     2     1     6 1   
     3     1    15 1   
     4     1    16 1   
     5     2     3 1   
     6     2    17 1   
     7     2    18 1   
     8     3     4 1   
     9     3    19 1   
    10     3    20 1   
    11     4     5 1   
    12     4    21 1   
    13     4    22 1   
    14     5     6 1   
    15     5    23 1   
    16     5    24 1   
    17     6     7 1   
    18     6    25 1   
    19     7     8 1   
    20     7    26 1   
    21     7    27 1   
    22     8     9 1   
    23     8    28 1   
    24     9    10 1   
    25     9    29 1   
    26     9    30 1   
    27    10    11 1   
    28    10    31 1   
    29    10    32 1   
    30    11    12 1   
    31    11    13 1   
    32    11    14 1   
@<TRIPOS>SUBSTRUCTURE
     1 IJ6         1 TEMP              0 ****  ****    0 ROOT
