@<TRIPOS>MOLECULE
IJ6
   32    32     1     0     0
SMALL
No Charge or Current Charge


@<TRIPOS>ATOM
      1 CAH         -3.0590     1.0810     0.2810 c6         1 IJ6      -0.071900
      2 CAE         -4.4610     1.5490    -0.1830 c6         1 IJ6      -0.072400
      3 CAD         -5.5630     0.5580     0.2650 c6         1 IJ6      -0.072400
      4 CAF         -5.2580    -0.8740    -0.2340 c6         1 IJ6      -0.072400
      5 CAI         -3.8570    -1.3440     0.2320 c6         1 IJ6      -0.071900
      6 CAM         -2.7410    -0.3600    -0.2200 c6         1 IJ6      -0.064700
      7 CAK         -1.3420    -0.8580     0.2500 c3         1 IJ6       0.163800
      8 NAL         -0.2380    -0.0500    -0.3000 n7         1 IJ6      -0.865400
      9 CAG          1.1050    -0.4540     0.1340 c3         1 IJ6       0.195800
     10 CAJ          2.1080     0.5120    -0.4920 c3         1 IJ6      -0.358400
     11 SAN          3.8010     0.1020    -0.0350 s6         1 IJ6       1.324600
     12 OAC          4.5990     1.1270    -0.7230 o          1 IJ6      -0.698867
     13 OAB          3.8090     0.2080     1.4310 o          1 IJ6      -0.698867
     14 OAA          3.9900    -1.2620    -0.5510 o          1 IJ6      -0.698867
     15 H1          -2.3050     1.7900    -0.0880 hc         1 IJ6       0.038200
     16 H2          -3.0060     1.1140     1.3780 hc         1 IJ6       0.038200
     17 H3          -4.6730     2.5480     0.2210 hc         1 IJ6       0.032450
     18 H4          -4.4750     1.6470    -1.2780 hc         1 IJ6       0.032450
     19 H5          -5.6390     0.5610     1.3610 hc         1 IJ6       0.030200
     20 H6          -6.5380     0.8870    -0.1180 hc         1 IJ6       0.030200
     21 H7          -6.0260    -1.5680     0.1350 hc         1 IJ6       0.032450
     22 H8          -5.3120    -0.9040    -1.3310 hc         1 IJ6       0.032450
     23 H9          -3.8490    -1.4400     1.3270 hc         1 IJ6       0.038200
     24 H10         -3.6580    -2.3480    -0.1680 hc         1 IJ6       0.038200
     25 H11         -2.7140    -0.3540    -1.3190 hc         1 IJ6       0.059700
     26 H12         -1.3170    -0.8380     1.3490 h1         1 IJ6       0.023200
     27 H13         -1.2240    -1.9040    -0.0640 h1         1 IJ6       0.023200
     28 H14         -0.3820     0.9200    -0.0040 hn         1 IJ6       0.395000
     29 H16          1.1850    -0.4160     1.2300 h1         1 IJ6       0.039200
     30 H17          1.3210    -1.4830    -0.1890 h1         1 IJ6       0.039200
     31 H18          2.0600     0.4690    -1.5840 h1         1 IJ6       0.069700
     32 H19          1.9320     1.5370    -0.1510 h1         1 IJ6       0.069700
@<TRIPOS>BOND
     1     1     2 1   
     2     1     6 1   
     3     1    15 1   
     4     1    16 1   
     5     2     3 1   
     6     2    17 1   
     7     2    18 1   
     8     3     4 1   
     9     3    19 1   
    10     3    20 1   
    11     4     5 1   
    12     4    21 1   
    13     4    22 1   
    14     5     6 1   
    15     5    23 1   
    16     5    24 1   
    17     6     7 1   
    18     6    25 1   
    19     7     8 1   
    20     7    26 1   
    21     7    27 1   
    22     8     9 1   
    23     8    28 1   
    24     9    10 1   
    25     9    29 1   
    26     9    30 1   
    27    10    11 1   
    28    10    31 1   
    29    10    32 1   
    30    11    12 1   
    31    11    13 1   
    32    11    14 1   
@<TRIPOS>SUBSTRUCTURE
     1 IJ6         1 TEMP              0 ****  ****    0 ROOT
