@<TRIPOS>MOLECULE
IJ7
   47    51     1     0     0
SMALL
abcg2


@<TRIPOS>ATOM
      1 C13          8.6530    36.8520    35.1200 cx         1 IJ7      -0.108400
      2 C15         11.6700    40.5220    38.0010 ca         1 IJ7      -0.093000
      3 C16         12.3460    39.4250    38.5400 ca         1 IJ7      -0.027000
      4 C18         13.6490    43.4590    38.9820 c5         1 IJ7       0.153300
      5 C22         10.3820    33.6290    38.4060 ca         1 IJ7      -0.150000
      6 C23         12.8980    32.9380    39.9160 ca         1 IJ7       0.208000
      7 C24          9.3930    34.0280    37.5400 ca         1 IJ7      -0.091000
      8 C25         14.0650    30.5810    40.4170 ca         1 IJ7       0.086900
      9 C26         14.0310    40.9100    39.4640 ca         1 IJ7      -0.074000
     10 C27         13.5280    39.6310    39.2660 ca         1 IJ7      -0.113000
     11 C28         12.9030    31.8960    38.9860 ca         1 IJ7       0.061400
     12 C1          11.1870    35.8710    38.4050 ca         1 IJ7       0.220500
     13 N2          10.2170    36.2280    37.5680 nb         1 IJ7      -0.670000
     14 C3          12.0770    36.9800    38.8680 c          1 IJ7       0.528600
     15 C4          11.6670    43.0920    37.7580 c          1 IJ7       0.580600
     16 C5          11.3490    34.5460    38.8490 ca         1 IJ7       0.334000
     17 N6          12.5430    44.0070    38.2300 ns         1 IJ7      -0.519900
     18 C7          12.1920    41.7820    38.2110 ca         1 IJ7      -0.136600
     19 C8           9.3390    35.3590    37.1110 ca         1 IJ7       0.359300
     20 C9           8.3070    35.8170    36.1570 cx         1 IJ7      -0.197000
     21 N10         11.7890    38.1690    38.3000 ns         1 IJ7      -0.120000
     22 C12          7.7570    37.2150    36.2510 cx         1 IJ7      -0.108400
     23 C14         13.3540    41.9910    38.9320 ca         1 IJ7      -0.114300
     24 O17         12.9680    36.8030    39.6930 o          1 IJ7      -0.625100
     25 N19         13.4730    30.7290    39.2430 nb         1 IJ7      -0.148500
     26 N20         14.1460    31.5080    41.3600 nb         1 IJ7      -0.148500
     27 O21         10.6610    43.3050    37.1020 o          1 IJ7      -0.544000
     28 C29         13.5660    32.6680    41.1130 ca         1 IJ7       0.061400
     29 H36          9.6650    37.2380    35.1310 hc         1 IJ7       0.077450
     30 H37          8.2240    36.7320    34.1340 hc         1 IJ7       0.077450
     31 H40         14.6090    43.7030    38.5200 h1         1 IJ7       0.058700
     32 H39         13.6680    43.8410    40.0050 h1         1 IJ7       0.058700
     33 H41         10.3930    32.6070    38.7580 ha         1 IJ7       0.134000
     34 H42          8.6510    33.3160    37.2040 ha         1 IJ7       0.130000
     35 H43         14.5280    29.6240    40.6210 h5         1 IJ7       0.054100
     36 H44         14.9460    41.0410    40.0280 ha         1 IJ7       0.122000
     37 H45         14.0660    38.7930    39.6780 ha         1 IJ7       0.148000
     38 H46         12.4510    32.0090    38.0070 h4         1 IJ7       0.031600
     39 H30         12.4350    44.9960    38.0680 hn         1 IJ7       0.333500
     40 H31          7.6110    35.0440    35.8540 hc         1 IJ7       0.086700
     41 H32         10.9940    38.1340    37.6710 hn         1 IJ7       0.189000
     42 H35          6.7010    37.3470    36.0550 hc         1 IJ7       0.077450
     43 H34          8.1570    37.8500    37.0310 hc         1 IJ7       0.077450
     44 H47         13.6300    33.4330    41.8820 h4         1 IJ7       0.031600
     45 N11         12.3580    34.1910    39.7100 nu         1 IJ7      -0.970000
     46 H38         10.7560    40.3850    37.4340 ha         1 IJ7       0.136000
     47 H33         12.8470    34.9760    40.1260 hn         1 IJ7       0.543000
@<TRIPOS>BOND
     1     1    20 1   
     2     1    22 1   
     3     1    29 1   
     4     1    30 1   
     5     2     3 ar  
     6     2    18 ar  
     7     2    46 1   
     8     3    10 ar  
     9     3    21 1   
    10     4    17 1   
    11     4    23 1   
    12     4    31 1   
    13     4    32 1   
    14     5     7 ar  
    15     5    16 ar  
    16     5    33 1   
    17     6    11 ar  
    18     6    28 ar  
    19     6    45 1   
    20     7    19 ar  
    21     7    34 1   
    22     8    25 ar  
    23     8    26 ar  
    24     8    35 1   
    25     9    10 ar  
    26     9    23 ar  
    27     9    36 1   
    28    10    37 1   
    29    11    25 ar  
    30    11    38 1   
    31    12    13 ar  
    32    12    14 1   
    33    12    16 ar  
    34    13    19 ar  
    35    14    21 1   
    36    14    24 2   
    37    15    17 1   
    38    15    18 1   
    39    15    27 2   
    40    16    45 1   
    41    17    39 1   
    42    18    23 ar  
    43    19    20 1   
    44    20    22 1   
    45    20    40 1   
    46    21    41 1   
    47    22    42 1   
    48    22    43 1   
    49    26    28 ar  
    50    28    44 1   
    51    45    47 1   
@<TRIPOS>SUBSTRUCTURE
     1 IJ7         1 TEMP              0 ****  ****    0 ROOT
