@<TRIPOS>MOLECULE
IJ7
   47    51     1     0     0
SMALL
No Charge or Current Charge


@<TRIPOS>ATOM
      1 C13          8.4020    36.9060    35.1030 cx         1 IJ7      -0.108400
      2 C15         11.7600    40.5980    37.9790 ca         1 IJ7      -0.093000
      3 C16         12.3380    39.4980    38.6520 ca         1 IJ7      -0.027000
      4 C18         13.7710    43.5430    38.9900 c5         1 IJ7       0.153300
      5 C22         10.3820    33.5380    38.2780 ca         1 IJ7      -0.150000
      6 C23         12.9570    32.8510    39.9260 ca         1 IJ7       0.208000
      7 C24          9.3690    33.9480    37.3940 ca         1 IJ7      -0.091000
      8 C25         14.2670    30.5460    40.4570 ca         1 IJ7       0.086900
      9 C26         14.0030    41.0070    39.6660 ca         1 IJ7      -0.074000
     10 C27         13.4650    39.7130    39.4940 ca         1 IJ7      -0.113000
     11 C28         13.0000    31.7850    38.9960 ca         1 IJ7       0.061400
     12 C1          11.0930    35.8600    38.4080 ca         1 IJ7       0.220500
     13 N2          10.1010    36.2420    37.5370 nb         1 IJ7      -0.670000
     14 C3          11.9930    36.9610    38.9790 c          1 IJ7       0.528600
     15 C4          11.9070    43.1780    37.5910 c          1 IJ7       0.580600
     16 C5          11.2850    34.4900    38.7880 ca         1 IJ7       0.334000
     17 N6          12.7680    44.1360    38.0830 ns         1 IJ7      -0.519900
     18 C7          12.3150    41.8720    38.1680 ca         1 IJ7      -0.136600
     19 C8           9.2640    35.3040    37.0380 ca         1 IJ7       0.359300
     20 C9           8.1890    35.7730    36.0880 cx         1 IJ7      -0.197000
     21 N10         11.7520    38.2190    38.4350 ns         1 IJ7      -0.120000
     22 C12          7.4580    37.0900    36.2670 cx         1 IJ7      -0.108400
     23 C14         13.4050    42.0760    38.9880 ca         1 IJ7      -0.114300
     24 O17         12.8380    36.7600    39.8540 o          1 IJ7      -0.625100
     25 N19         13.6500    30.6310    39.2590 nb         1 IJ7      -0.148500
     26 N20         14.3080    31.5010    41.4100 nb         1 IJ7      -0.148500
     27 O21         10.9830    43.3890    36.8210 o          1 IJ7      -0.544000
     28 C29         13.6570    32.6520    41.1370 ca         1 IJ7       0.061400
     29 H36          9.3460    37.4440    35.1290 hc         1 IJ7       0.077450
     30 H37          7.9680    36.8030    34.1110 hc         1 IJ7       0.077450
     31 H40         14.7950    43.6920    38.6220 h1         1 IJ7       0.058700
     32 H39         13.7060    43.9620    40.0030 h1         1 IJ7       0.058700
     33 H41         10.4440    32.4950    38.5730 ha         1 IJ7       0.134000
     34 H42          8.6690    33.2220    36.9910 ha         1 IJ7       0.130000
     35 H43         14.7900    29.6160    40.6730 h5         1 IJ7       0.054100
     36 H44         14.8640    41.1690    40.3110 ha         1 IJ7       0.122000
     37 H45         13.9410    38.8920    40.0190 ha         1 IJ7       0.148000
     38 H46         12.5320    31.8570    38.0160 h4         1 IJ7       0.031600
     39 H30         12.6700    45.1080    37.8150 hn         1 IJ7       0.333500
     40 H31          7.5850    34.9440    35.7270 hc         1 IJ7       0.086700
     41 H32         11.0090    38.2160    37.7470 hn         1 IJ7       0.189000
     42 H35          6.3910    37.1100    36.0570 hc         1 IJ7       0.077450
     43 H34          7.7720    37.7500    37.0730 hc         1 IJ7       0.077450
     44 H47         13.6930    33.4250    41.9040 h4         1 IJ7       0.031600
     45 N11         12.3080    34.0760    39.6700 nu         1 IJ7      -0.970000
     46 H38         10.9000    40.4670    37.3250 ha         1 IJ7       0.136000
     47 H33         12.7370    34.8840    40.1510 hn         1 IJ7       0.543000
@<TRIPOS>BOND
     1     1    20 1   
     2     1    22 1   
     3     1    29 1   
     4     1    30 1   
     5     2     3 ar  
     6     2    18 ar  
     7     2    46 1   
     8     3    10 ar  
     9     3    21 1   
    10     4    17 1   
    11     4    23 1   
    12     4    31 1   
    13     4    32 1   
    14     5     7 ar  
    15     5    16 ar  
    16     5    33 1   
    17     6    11 ar  
    18     6    28 ar  
    19     6    45 1   
    20     7    19 ar  
    21     7    34 1   
    22     8    25 ar  
    23     8    26 ar  
    24     8    35 1   
    25     9    10 ar  
    26     9    23 ar  
    27     9    36 1   
    28    10    37 1   
    29    11    25 ar  
    30    11    38 1   
    31    12    13 ar  
    32    12    14 1   
    33    12    16 ar  
    34    13    19 ar  
    35    14    21 1   
    36    14    24 2   
    37    15    17 1   
    38    15    18 1   
    39    15    27 2   
    40    16    45 1   
    41    17    39 1   
    42    18    23 ar  
    43    19    20 1   
    44    20    22 1   
    45    20    40 1   
    46    21    41 1   
    47    22    42 1   
    48    22    43 1   
    49    26    28 ar  
    50    28    44 1   
    51    45    47 1   
@<TRIPOS>SUBSTRUCTURE
     1 IJ7         1 TEMP              0 ****  ****    0 ROOT
