@<TRIPOS>MOLECULE
IJ8
   15    15     1     0     0
SMALL
bcc


@<TRIPOS>ATOM
      1 C02         -9.9360   -19.0370   -37.0200 c5         1 IJ8       0.095600
      2 C03         -8.5000   -18.9930   -37.5050 c5         1 IJ8       0.113400
      3 C05         -8.5840   -20.4420   -35.6920 c5         1 IJ8       0.113400
      4 C06         -9.7210   -19.4280   -35.5590 c5         1 IJ8       0.095600
      5 O01        -10.6310   -20.0350   -37.7270 oh         1 IJ8      -0.591800
      6 O04         -7.7790   -19.9640   -36.7530 os         1 IJ8      -0.402600
      7 O07        -10.9030   -19.9240   -34.9980 oh         1 IJ8      -0.591800
      8 H1         -10.4220   -18.0580   -37.1180 h1         1 IJ8       0.050700
      9 H2          -8.4240   -19.2110   -38.5740 h1         1 IJ8       0.055950
     10 H3          -8.0780   -17.9970   -37.3350 h1         1 IJ8       0.055950
     11 H4          -8.9910   -21.4360   -35.9150 h1         1 IJ8       0.055950
     12 H5          -7.9800   -20.5200   -34.7850 h1         1 IJ8       0.055950
     13 H6          -9.3560   -18.5450   -35.0160 h1         1 IJ8       0.050700
     14 H7         -11.4430   -20.2350   -37.2490 ho         1 IJ8       0.421000
     15 H8         -10.7420   -20.1640   -34.0800 ho         1 IJ8       0.421000
@<TRIPOS>BOND
     1     1     2 1   
     2     1     4 1   
     3     1     5 1   
     4     1     8 1   
     5     2     6 1   
     6     2     9 1   
     7     2    10 1   
     8     3     4 1   
     9     3     6 1   
    10     3    11 1   
    11     3    12 1   
    12     4     7 1   
    13     4    13 1   
    14     5    14 1   
    15     7    15 1   
@<TRIPOS>SUBSTRUCTURE
     1 IJ8         1 TEMP              0 ****  ****    0 ROOT
