@<TRIPOS>MOLECULE
IJ8
   15    15     1     0     0
SMALL
No Charge or Current Charge


@<TRIPOS>ATOM
      1 C02         -9.8440   -18.7760   -36.9470 c5         1 IJ8       0.118800
      2 C03         -8.5310   -19.3080   -37.6220 c5         1 IJ8       0.136600
      3 C05         -8.4650   -20.1790   -35.5080 c5         1 IJ8       0.136600
      4 C06         -9.8860   -19.5360   -35.5670 c5         1 IJ8       0.118800
      5 O01        -11.0270   -19.1190   -37.6690 oh         1 IJ8      -0.714000
      6 O04         -8.1800   -20.4920   -36.8820 os         1 IJ8      -0.449000
      7 O07        -10.9410   -20.5290   -35.5700 oh         1 IJ8      -0.714000
      8 H1          -9.7830   -17.6880   -36.8010 h1         1 IJ8       0.050700
      9 H2          -8.6620   -19.5540   -38.6840 h1         1 IJ8       0.055950
     10 H3          -7.7160   -18.5760   -37.5310 h1         1 IJ8       0.055950
     11 H4          -8.4250   -21.0890   -34.8950 h1         1 IJ8       0.055950
     12 H5          -7.7140   -19.4680   -35.1340 h1         1 IJ8       0.055950
     13 H6         -10.0280   -18.8330   -34.7340 h1         1 IJ8       0.050700
     14 H7         -11.3800   -19.8460   -37.0830 ho         1 IJ8       0.520000
     15 H8         -10.9080   -20.9950   -34.6990 ho         1 IJ8       0.520000
@<TRIPOS>BOND
     1     1     2 1   
     2     1     4 1   
     3     1     5 1   
     4     1     8 1   
     5     2     6 1   
     6     2     9 1   
     7     2    10 1   
     8     3     4 1   
     9     3     6 1   
    10     3    11 1   
    11     3    12 1   
    12     4     7 1   
    13     4    13 1   
    14     5    14 1   
    15     7    15 1   
@<TRIPOS>SUBSTRUCTURE
     1 IJ8         1 TEMP              0 ****  ****    0 ROOT
