@<TRIPOS>MOLECULE
IJA
   52    56     1     0     0
SMALL
abcg2


@<TRIPOS>ATOM
      1 C10        -52.0480    79.4500   -15.0470 c3         1 IJA       0.069900
      2 C11        -56.4940    75.4890   -10.2460 cc         1 IJA       0.424500
      3 C15        -57.7500    74.8990    -8.6250 cd         1 IJA       0.139400
      4 C16        -57.9970    76.2400    -8.7960 cc         1 IJA      -0.273100
      5 C17        -55.4190    76.6800   -11.8550 cd         1 IJA       0.518900
      6 C18        -56.0960    77.8760   -11.4740 cd         1 IJA      -0.212000
      7 C19        -56.9860    77.8050   -10.4540 cc         1 IJA      -0.057000
      8 C20        -58.3420    74.0000    -7.6340 ca         1 IJA      -0.022800
      9 C21        -59.3080    74.4480    -6.7300 ca         1 IJA      -0.086500
     10 C22        -57.9390    72.6650    -7.5750 ca         1 IJA      -0.086500
     11 C23        -58.4840    71.8030    -6.6350 ca         1 IJA      -0.118000
     12 C24        -59.8510    73.5850    -5.7910 ca         1 IJA      -0.118000
     13 C25        -59.4410    72.2580    -5.7380 ca         1 IJA      -0.104000
     14 C28        -54.1050    72.4650   -16.1860 c3         1 IJA       0.080700
     15 C1         -53.1060    77.1590   -14.7510 cc         1 IJA      -0.157600
     16 C2         -52.9110    75.9470   -15.4160 cd         1 IJA      -0.248600
     17 N3         -52.2720    78.0440   -15.3390 na         1 IJA       0.179800
     18 C4         -54.0430    77.6050   -13.6820 c          1 IJA       0.650700
     19 N5         -51.5580    77.4970   -16.3090 nc         1 IJA      -0.508800
     20 C6         -53.5220    74.6230   -15.1840 c          1 IJA       0.649700
     21 C7         -51.9350    76.2390   -16.3780 cd         1 IJA       0.255900
     22 O8         -54.3310    78.7800   -13.5620 o          1 IJA      -0.596100
     23 N9         -54.5050    76.6080   -12.8890 ns         1 IJA      -0.486400
     24 N12        -55.6190    75.5360   -11.2510 nc         1 IJA      -0.686000
     25 N13        -56.8250    74.4490    -9.5210 nd         1 IJA      -0.276600
     26 N14        -57.1900    76.6190    -9.8350 na         1 IJA      -0.084400
     27 O26        -53.9260    74.2710   -14.0740 o          1 IJA      -0.617100
     28 N27        -53.5890    73.8210   -16.2490 ns         1 IJA      -0.480900
     29 C29        -51.6870    70.1970   -14.6150 cc         1 IJA      -0.180000
     30 C30        -53.0830    71.4620   -15.7510 cd         1 IJA       0.213300
     31 C31        -52.6170    71.1950   -14.4480 cd         1 IJA      -0.194000
     32 N32        -51.6490    69.9340   -15.9310 na         1 IJA      -0.001200
     33 N33        -52.4830    70.6850   -16.6370 nc         1 IJA      -0.525800
     34 H1         -51.1530    79.7410   -15.5880 h1         1 IJA       0.071367
     35 H2         -52.8850    80.0560   -15.3820 h1         1 IJA       0.071367
     36 H3         -51.8910    79.6060   -13.9850 h1         1 IJA       0.071367
     37 H5         -55.9300    78.8160   -11.9690 ha         1 IJA       0.168000
     38 H6         -57.5510    78.6560   -10.0990 h4         1 IJA       0.147000
     39 H7         -59.6430    75.4770    -6.7530 ha         1 IJA       0.122000
     40 H8         -57.1930    72.3020    -8.2680 ha         1 IJA       0.122000
     41 H9         -58.1570    70.7710    -6.6030 ha         1 IJA       0.111500
     42 H10        -60.5970    73.9510    -5.0980 ha         1 IJA       0.111500
     43 H11        -59.8650    71.5860    -5.0040 ha         1 IJA       0.110000
     44 H12        -54.9670    72.4430   -15.5210 h1         1 IJA       0.071200
     45 H13        -54.4590    72.2110   -17.1840 h1         1 IJA       0.071200
     46 H14        -51.4750    75.5740   -17.0940 h4         1 IJA       0.045100
     47 H15        -54.2060    75.6470   -13.1220 hn         1 IJA       0.398500
     48 H16        -53.2810    74.1560   -17.1480 hn         1 IJA       0.323500
     49 H17        -51.0700    69.6650   -13.9090 h4         1 IJA       0.156000
     50 H18        -52.9210    71.6620   -13.5270 ha         1 IJA       0.166000
     51 H19        -51.0760    69.2480   -16.3970 hn         1 IJA       0.370000
     52 H4         -58.6440    76.9380    -8.2920 h4         1 IJA       0.232000
@<TRIPOS>BOND
     1     1    17 1   
     2     1    34 1   
     3     1    35 1   
     4     1    36 1   
     5     2    24 1   
     6     2    25 2   
     7     2    26 1   
     8     3     4 2   
     9     3     8 1   
    10     3    25 1   
    11     4    26 1   
    12     4    52 1   
    13     5     6 1   
    14     5    23 1   
    15     5    24 2   
    16     6     7 2   
    17     6    37 1   
    18     7    26 1   
    19     7    38 1   
    20     8     9 ar  
    21     8    10 ar  
    22     9    12 ar  
    23     9    39 1   
    24    10    11 ar  
    25    10    40 1   
    26    11    13 ar  
    27    11    41 1   
    28    12    13 ar  
    29    12    42 1   
    30    13    43 1   
    31    14    28 1   
    32    14    30 1   
    33    14    44 1   
    34    14    45 1   
    35    15    16 2   
    36    15    17 1   
    37    15    18 1   
    38    16    20 1   
    39    16    21 1   
    40    17    19 1   
    41    18    22 2   
    42    18    23 1   
    43    19    21 2   
    44    20    27 2   
    45    20    28 1   
    46    21    46 1   
    47    23    47 1   
    48    28    48 1   
    49    29    31 2   
    50    29    32 1   
    51    29    49 1   
    52    30    31 1   
    53    30    33 2   
    54    31    50 1   
    55    32    33 1   
    56    32    51 1   
@<TRIPOS>SUBSTRUCTURE
     1 IJA         1 TEMP              0 ****  ****    0 ROOT
