@<TRIPOS>MOLECULE
IJA
   52    56     1     0     0
SMALL
No Charge or Current Charge


@<TRIPOS>ATOM
      1 C10        -52.0500    79.5350   -15.2400 c3         1 IJA       0.069900
      2 C11        -56.4260    75.3480   -10.3070 cc         1 IJA       0.424500
      3 C15        -57.6350    74.7940    -8.5880 cd         1 IJA       0.139400
      4 C16        -57.7090    76.1740    -8.6250 cc         1 IJA      -0.273100
      5 C17        -55.3910    76.5360   -11.9070 cd         1 IJA       0.518900
      6 C18        -55.9560    77.7510   -11.3390 cd         1 IJA      -0.212000
      7 C19        -56.7570    77.7430   -10.2020 cc         1 IJA      -0.057000
      8 C20        -58.2990    73.9080    -7.6070 ca         1 IJA      -0.022800
      9 C21        -59.1020    74.4460    -6.5770 ca         1 IJA      -0.086500
     10 C22        -58.1450    72.5040    -7.6800 ca         1 IJA      -0.086500
     11 C23        -58.7780    71.6630    -6.7470 ca         1 IJA      -0.118000
     12 C24        -59.7330    73.6040    -5.6450 ca         1 IJA      -0.118000
     13 C25        -59.5720    72.2130    -5.7290 ca         1 IJA      -0.104000
     14 C28        -53.8290    72.4340   -16.5520 c3         1 IJA       0.080700
     15 C1         -53.1550    77.2320   -14.8860 cc         1 IJA      -0.157600
     16 C2         -53.0760    76.0710   -15.6730 cd         1 IJA      -0.248600
     17 N3         -52.3450    78.1350   -15.5940 na         1 IJA       0.179800
     18 C4         -53.8830    77.5490   -13.6070 c          1 IJA       0.650700
     19 N5         -51.7800    77.6230   -16.7350 nc         1 IJA      -0.508800
     20 C6         -53.7020    74.7240   -15.5070 c          1 IJA       0.649700
     21 C7         -52.2310    76.3940   -16.7590 cd         1 IJA       0.255900
     22 O8         -53.8040    78.6510   -13.0890 o          1 IJA      -0.596100
     23 N9         -54.6120    76.5480   -13.0290 ns         1 IJA      -0.486400
     24 N12        -55.6410    75.3290   -11.4240 nc         1 IJA      -0.686000
     25 N13        -56.8450    74.2980    -9.6270 nd         1 IJA      -0.276600
     26 N14        -56.9150    76.4620    -9.6960 na         1 IJA      -0.084400
     27 O26        -54.4380    74.3940   -14.5950 o          1 IJA      -0.617100
     28 N27        -53.3760    73.8340   -16.5040 ns         1 IJA      -0.480900
     29 C29        -52.1400    70.3770   -13.9670 cc         1 IJA      -0.180000
     30 C30        -52.9710    71.5140   -15.7140 cd         1 IJA       0.213300
     31 C31        -53.1160    71.2580   -14.3350 cd         1 IJA      -0.194000
     32 N32        -51.4490    70.1460   -15.1560 na         1 IJA      -0.001200
     33 N33        -51.9580    70.8480   -16.2400 nc         1 IJA      -0.525800
     34 H1         -51.3860    79.9830   -15.9890 h1         1 IJA       0.071367
     35 H2         -52.9830    80.1080   -15.2020 h1         1 IJA       0.071367
     36 H3         -51.5580    79.5700   -14.2610 h1         1 IJA       0.071367
     37 H5         -55.7840    78.7080   -11.8100 ha         1 IJA       0.168000
     38 H6         -57.2280    78.5870    -9.7120 h4         1 IJA       0.147000
     39 H7         -59.2420    75.5200    -6.4900 ha         1 IJA       0.122000
     40 H8         -57.5350    72.0550    -8.4600 ha         1 IJA       0.122000
     41 H9         -58.6510    70.5850    -6.8150 ha         1 IJA       0.111500
     42 H10        -60.3480    74.0320    -4.8560 ha         1 IJA       0.111500
     43 H11        -60.0610    71.5620    -5.0070 ha         1 IJA       0.110000
     44 H12        -54.8680    72.3750   -16.2020 h1         1 IJA       0.071200
     45 H13        -53.8130    72.0940   -17.5950 h1         1 IJA       0.071200
     46 H14        -51.9260    75.7600   -17.5810 h4         1 IJA       0.045100
     47 H15        -54.5020    75.6530   -13.4790 hn         1 IJA       0.398500
     48 H16        -52.7520    74.1590   -17.2300 hn         1 IJA       0.323500
     49 H17        -51.8860    69.9190   -13.0180 h4         1 IJA       0.156000
     50 H18        -53.8710    71.6910   -13.6850 ha         1 IJA       0.166000
     51 H19        -50.6420    69.5310   -15.2620 hn         1 IJA       0.370000
     52 H4         -58.2210    76.9090    -8.0150 h4         1 IJA       0.232000
@<TRIPOS>BOND
     1     1    17 1   
     2     1    34 1   
     3     1    35 1   
     4     1    36 1   
     5     2    24 1   
     6     2    25 2   
     7     2    26 1   
     8     3     4 2   
     9     3     8 1   
    10     3    25 1   
    11     4    26 1   
    12     4    52 1   
    13     5     6 1   
    14     5    23 1   
    15     5    24 2   
    16     6     7 2   
    17     6    37 1   
    18     7    26 1   
    19     7    38 1   
    20     8     9 ar  
    21     8    10 ar  
    22     9    12 ar  
    23     9    39 1   
    24    10    11 ar  
    25    10    40 1   
    26    11    13 ar  
    27    11    41 1   
    28    12    13 ar  
    29    12    42 1   
    30    13    43 1   
    31    14    28 1   
    32    14    30 1   
    33    14    44 1   
    34    14    45 1   
    35    15    16 2   
    36    15    17 1   
    37    15    18 1   
    38    16    20 1   
    39    16    21 1   
    40    17    19 1   
    41    18    22 2   
    42    18    23 1   
    43    19    21 2   
    44    20    27 2   
    45    20    28 1   
    46    21    46 1   
    47    23    47 1   
    48    28    48 1   
    49    29    31 2   
    50    29    32 1   
    51    29    49 1   
    52    30    31 1   
    53    30    33 2   
    54    31    50 1   
    55    32    33 1   
    56    32    51 1   
@<TRIPOS>SUBSTRUCTURE
     1 IJA         1 TEMP              0 ****  ****    0 ROOT
