@<TRIPOS>MOLECULE
IJB
   32    34     1     0     0
SMALL
No Charge or Current Charge


@<TRIPOS>ATOM
      1 C1         121.1450   207.0660    -4.0470 cc         1 IJB      -0.173400
      2 C2         121.3200   206.3320    -5.3070 ca         1 IJB      -0.119800
      3 C3         121.2280   207.2430    -6.3450 ca         1 IJB       0.091600
      4 C4         121.3860   206.8840    -7.6840 ca         1 IJB      -0.233000
      5 C5         121.6680   205.5370    -7.9640 ca         1 IJB       0.321000
      6 C6         121.8130   204.6010    -6.9170 ca         1 IJB      -0.216000
      7 C7         121.6570   204.9940    -5.5690 ca         1 IJB      -0.008000
      8 C8         121.0370   206.5820    -2.7690 cf         1 IJB      -0.008200
      9 C9         120.6090   205.2890    -2.1940 ca         1 IJB      -0.130800
     10 C10        120.8770   205.0180    -0.8390 ca         1 IJB      -0.114500
     11 C11        120.4700   203.8070    -0.2540 ca         1 IJB      -0.098000
     12 C12        119.7660   202.8390    -1.0070 ca         1 IJB      -0.110600
     13 C13        119.3230   201.5270    -0.3750 c          1 IJB       0.712600
     14 C14        119.4730   203.1300    -2.3590 ca         1 IJB      -0.098000
     15 C15        119.8830   204.3420    -2.9410 ca         1 IJB      -0.114500
     16 O1         119.5920   201.3220     0.8010 o          1 IJB      -0.714500
     17 N1         121.8310   205.1370    -9.2580 nv         1 IJB      -1.090000
     18 O2         118.7130   200.7200    -1.0650 o          1 IJB      -0.714500
     19 N          121.0270   208.4950    -5.7780 ns         1 IJB      -0.411100
     20 C          120.9780   208.5000    -4.4100 c          1 IJB       0.563200
     21 O          120.8070   209.4740    -3.6920 o          1 IJB      -0.555000
     22 H1         121.3080   207.6240    -8.4750 ha         1 IJB       0.107000
     23 H2         122.0610   203.5680    -7.1440 ha         1 IJB       0.113000
     24 H3         121.8130   204.2800    -4.7640 ha         1 IJB       0.141000
     25 H4         121.0250   207.3830    -2.0260 ha         1 IJB       0.185000
     26 H5         121.4170   205.7440    -0.2350 ha         1 IJB       0.093500
     27 H6         120.7040   203.6230     0.7930 ha         1 IJB       0.130500
     28 H7         118.9140   202.4190    -2.9640 ha         1 IJB       0.130500
     29 H8         119.6010   204.5520    -3.9690 ha         1 IJB       0.093500
     30 H10        121.8790   204.1430    -9.4730 hn         1 IJB       0.450500
     31 H11        121.5780   205.7690   -10.0150 hn         1 IJB       0.450500
     32 H12        120.9400   209.3410    -6.3250 hn         1 IJB       0.325500
@<TRIPOS>BOND
     1     1     2 1   
     2     1     8 2   
     3     1    20 1   
     4     2     3 ar  
     5     2     7 ar  
     6     3     4 ar  
     7     3    19 1   
     8     4     5 ar  
     9     4    22 1   
    10     5     6 ar  
    11     5    17 1   
    12     6     7 ar  
    13     6    23 1   
    14     7    24 1   
    15     8     9 1   
    16     8    25 1   
    17     9    10 ar  
    18     9    15 ar  
    19    10    11 ar  
    20    10    26 1   
    21    11    12 ar  
    22    11    27 1   
    23    12    13 1   
    24    12    14 ar  
    25    13    16 1   
    26    13    18 1   
    27    14    15 ar  
    28    14    28 1   
    29    15    29 1   
    30    17    30 1   
    31    17    31 1   
    32    19    20 1   
    33    19    32 1   
    34    20    21 2   
@<TRIPOS>SUBSTRUCTURE
     1 IJB         1 TEMP              0 ****  ****    0 ROOT
