@<TRIPOS>MOLECULE
IJB
   32    34     1     0     0
SMALL
abcg2


@<TRIPOS>ATOM
      1 C1         120.8380   207.0330    -4.0570 cc         1 IJB      -0.173400
      2 C2         121.0950   206.2790    -5.2760 ca         1 IJB      -0.119800
      3 C3         121.3670   207.2130    -6.2880 ca         1 IJB       0.091600
      4 C4         121.6950   206.8610    -7.5770 ca         1 IJB      -0.233000
      5 C5         121.7700   205.4940    -7.8940 ca         1 IJB       0.321000
      6 C6         121.5220   204.5440    -6.8890 ca         1 IJB      -0.216000
      7 C7         121.1910   204.9310    -5.6020 ca         1 IJB      -0.008000
      8 C8         120.5810   206.7100    -2.7780 cf         1 IJB      -0.008200
      9 C9         120.3440   205.3860    -2.2110 ca         1 IJB      -0.130800
     10 C10        120.9080   205.0560    -0.9750 ca         1 IJB      -0.114500
     11 C11        120.7150   203.8010    -0.4210 ca         1 IJB      -0.098000
     12 C12        119.9220   202.8480    -1.0580 ca         1 IJB      -0.110600
     13 C13        119.7140   201.4640    -0.4470 c          1 IJB       0.712600
     14 C14        119.3200   203.1970    -2.2650 ca         1 IJB      -0.098000
     15 C15        119.5280   204.4410    -2.8360 ca         1 IJB      -0.114500
     16 O1         120.3260   201.2310     0.6120 o          1 IJB      -0.714500
     17 N1         122.1350   205.0970    -9.1520 nv         1 IJB      -1.090000
     18 O2         118.9550   200.6950    -1.0650 o          1 IJB      -0.714500
     19 N          121.2740   208.4940    -5.7680 ns         1 IJB      -0.411100
     20 C          120.9800   208.4790    -4.4350 c          1 IJB       0.563200
     21 O          120.8540   209.4560    -3.7250 o          1 IJB      -0.555000
     22 H1         121.8980   207.6130    -8.3300 ha         1 IJB       0.107000
     23 H2         121.5870   203.4900    -7.1300 ha         1 IJB       0.113000
     24 H3         121.0140   204.1650    -4.8600 ha         1 IJB       0.141000
     25 H4         120.5670   207.5350    -2.0700 ha         1 IJB       0.185000
     26 H5         121.5200   205.7850    -0.4570 ha         1 IJB       0.093500
     27 H6         121.1820   203.5570     0.5240 ha         1 IJB       0.130500
     28 H7         118.6770   202.4840    -2.7630 ha         1 IJB       0.130500
     29 H8         119.0320   204.6930    -3.7660 ha         1 IJB       0.093500
     30 H10        121.8970   204.1550    -9.4170 hn         1 IJB       0.450500
     31 H11        122.0050   205.7600    -9.8990 hn         1 IJB       0.450500
     32 H12        121.4310   209.3390    -6.2950 hn         1 IJB       0.325500
@<TRIPOS>BOND
     1     1     2 1   
     2     1     8 2   
     3     1    20 1   
     4     2     3 ar  
     5     2     7 ar  
     6     3     4 ar  
     7     3    19 1   
     8     4     5 ar  
     9     4    22 1   
    10     5     6 ar  
    11     5    17 1   
    12     6     7 ar  
    13     6    23 1   
    14     7    24 1   
    15     8     9 1   
    16     8    25 1   
    17     9    10 ar  
    18     9    15 ar  
    19    10    11 ar  
    20    10    26 1   
    21    11    12 ar  
    22    11    27 1   
    23    12    13 1   
    24    12    14 ar  
    25    13    16 1   
    26    13    18 1   
    27    14    15 ar  
    28    14    28 1   
    29    15    29 1   
    30    17    30 1   
    31    17    31 1   
    32    19    20 1   
    33    19    32 1   
    34    20    21 2   
@<TRIPOS>SUBSTRUCTURE
     1 IJB         1 TEMP              0 ****  ****    0 ROOT
