@<TRIPOS>MOLECULE
IJC
   35    36     1     0     0
SMALL
No Charge or Current Charge


@<TRIPOS>ATOM
      1 O           -8.5630    20.6180   -11.4720 o          1 IJC      -0.691500
      2 C           -7.3740    20.9050   -11.4480 c          1 IJC       0.715600
      3 C1          -6.4980    20.2330   -10.4060 ca         1 IJC      -0.024600
      4 C2          -5.4770    19.3670   -10.8560 ca         1 IJC      -0.108000
      5 C3          -4.6650    18.6730    -9.9460 ca         1 IJC      -0.086000
      6 O1          -6.8290    21.5990   -12.2970 o          1 IJC      -0.691500
      7 O2          -9.1210    20.7710    -7.9790 o          1 IJC      -0.510500
      8 N           -7.3310    22.1150    -6.8890 ns         1 IJC      -0.606300
      9 C10         -2.9740    25.1380    -3.5300 ca         1 IJC      -0.289000
     10 C11         -2.7340    24.4510    -4.7270 ca         1 IJC       0.395300
     11 C12         -1.1360    23.8070    -6.4760 c3         1 IJC       0.154900
     12 C4          -4.8670    18.8310    -8.5690 ca         1 IJC      -0.158000
     13 C5          -5.8700    19.6920    -8.0980 ca         1 IJC      -0.052000
     14 C6          -6.6820    20.4140    -9.0040 ca         1 IJC      -0.236500
     15 C7          -6.1970    22.8280    -6.7060 c          1 IJC       0.689100
     16 C8          -4.9330    23.8190    -4.7660 ca         1 IJC       0.328900
     17 C9          -4.2740    25.1030    -3.0070 ca         1 IJC       0.262000
     18 N1          -5.9860    23.1210    -5.3810 ns         1 IJC      -0.326900
     19 N2          -5.2690    24.4400    -3.6220 nb         1 IJC      -0.269000
     20 N3          -3.7230    23.7800    -5.3530 nb         1 IJC      -0.269000
     21 O3          -8.0420    22.7210    -9.2270 o          1 IJC      -0.510500
     22 O4          -5.4580    23.1650    -7.6150 o          1 IJC      -0.520100
     23 S           -7.9350    21.5530    -8.3450 sy         1 IJC       1.196300
     24 Cl          -4.6650    25.9330    -1.5100 cl         1 IJC      -0.168000
     25 H2          -5.3240    19.2230   -11.9240 ha         1 IJC       0.126000
     26 H3          -3.8860    18.0060   -10.3090 ha         1 IJC       0.090000
     27 H4          -7.9010    21.8420    -6.1070 hn         1 IJC       0.328500
     28 H5          -2.1780    25.6770    -3.0270 ha         1 IJC       0.155000
     29 H6          -0.0770    23.9470    -6.7240 h1         1 IJC       0.058700
     30 H7          -1.3260    22.7290    -6.3940 h1         1 IJC       0.058700
     31 H8          -1.7350    24.2020    -7.3070 h1         1 IJC       0.058700
     32 H9          -4.2450    18.2860    -7.8620 ha         1 IJC       0.089000
     33 H10         -6.0080    19.7980    -7.0250 ha         1 IJC       0.088000
     34 H11         -6.7120    22.8240    -4.7460 hn         1 IJC       0.174000
     35 O5          -1.4570    24.4830    -5.2420 os         1 IJC      -0.455300
@<TRIPOS>BOND
     1     1     2 1   
     2     2     3 1   
     3     2     6 1   
     4     3     4 ar  
     5     3    14 ar  
     6     4     5 ar  
     7     4    25 1   
     8     5    12 ar  
     9     5    26 1   
    10     7    23 2   
    11     8    15 1   
    12     8    23 1   
    13     8    27 1   
    14     9    10 ar  
    15     9    17 ar  
    16     9    28 1   
    17    10    20 ar  
    18    10    35 1   
    19    11    29 1   
    20    11    30 1   
    21    11    31 1   
    22    11    35 1   
    23    12    13 ar  
    24    12    32 1   
    25    13    14 ar  
    26    13    33 1   
    27    14    23 1   
    28    15    18 1   
    29    15    22 2   
    30    16    18 1   
    31    16    19 ar  
    32    16    20 ar  
    33    17    19 ar  
    34    17    24 1   
    35    18    34 1   
    36    21    23 2   
@<TRIPOS>SUBSTRUCTURE
     1 IJC         1 TEMP              0 ****  ****    0 ROOT
