@<TRIPOS>MOLECULE
IJC
   35    36     1     0     0
SMALL
abcg2


@<TRIPOS>ATOM
      1 O           -8.4530    20.7600   -11.2790 o          1 IJC      -0.691500
      2 C           -7.2280    20.8280   -11.4700 c          1 IJC       0.715600
      3 C1          -6.3790    20.2450   -10.3390 ca         1 IJC      -0.024600
      4 C2          -5.3710    19.3410   -10.6630 ca         1 IJC      -0.108000
      5 C3          -4.6700    18.6550    -9.6840 ca         1 IJC      -0.086000
      6 O1          -6.6130    21.2440   -12.4630 o          1 IJC      -0.691500
      7 O2          -9.1060    21.0260    -8.2130 o          1 IJC      -0.510500
      8 N           -7.3210    22.1510    -6.9670 ns         1 IJC      -0.606300
      9 C10         -2.8740    24.8340    -3.4720 ca         1 IJC      -0.289000
     10 C11         -2.7630    24.3830    -4.7930 ca         1 IJC       0.395300
     11 C12         -1.4480    24.0260    -6.7200 c3         1 IJC       0.154900
     12 C4          -4.9520    18.8770    -8.3430 ca         1 IJC      -0.158000
     13 C5          -5.9220    19.8010    -7.9910 ca         1 IJC      -0.052000
     14 C6          -6.6190    20.4780    -8.9850 ca         1 IJC      -0.236500
     15 C7          -6.1580    22.8690    -6.7590 c          1 IJC       0.689100
     16 C8          -4.9360    23.8080    -4.8220 ca         1 IJC       0.328900
     17 C9          -4.1310    24.7000    -2.9360 ca         1 IJC       0.262000
     18 N1          -6.0360    23.2650    -5.4460 ns         1 IJC      -0.326900
     19 N2          -5.1690    24.2010    -3.5750 nb         1 IJC      -0.269000
     20 N3          -3.7810    23.8740    -5.4590 nb         1 IJC      -0.269000
     21 O3          -7.7750    22.8400    -9.3520 o          1 IJC      -0.510500
     22 O4          -5.3740    23.0980    -7.6440 o          1 IJC      -0.520100
     23 S           -7.8420    21.6760    -8.4950 sy         1 IJC       1.196300
     24 CL          -4.4160    25.2080    -1.3130 cl         1 IJC      -0.168000
     25 H2          -5.1500    19.1590   -11.7070 ha         1 IJC       0.126000
     26 H3          -3.9040    17.9450    -9.9670 ha         1 IJC       0.090000
     27 H4          -7.8920    21.8230    -6.1960 hn         1 IJC       0.328500
     28 H5          -2.0390    25.2480    -2.9270 ha         1 IJC       0.155000
     29 H6          -0.4100    24.2060    -6.9830 h1         1 IJC       0.058700
     30 H7          -1.6690    22.9630    -6.8110 h1         1 IJC       0.058700
     31 H8          -2.0970    24.5840    -7.3950 h1         1 IJC       0.058700
     32 H9          -4.4130    18.3450    -7.5710 ha         1 IJC       0.089000
     33 H10         -6.1170    19.9840    -6.9430 ha         1 IJC       0.088000
     34 H11         -6.8390    23.1740    -4.8390 hn         1 IJC       0.174000
     35 O5          -1.5850    24.4760    -5.3730 os         1 IJC      -0.455300
@<TRIPOS>BOND
     1     1     2 1   
     2     2     3 1   
     3     2     6 1   
     4     3     4 ar  
     5     3    14 ar  
     6     4     5 ar  
     7     4    25 1   
     8     5    12 ar  
     9     5    26 1   
    10     7    23 2   
    11     8    15 1   
    12     8    23 1   
    13     8    27 1   
    14     9    10 ar  
    15     9    17 ar  
    16     9    28 1   
    17    10    20 ar  
    18    10    35 1   
    19    11    29 1   
    20    11    30 1   
    21    11    31 1   
    22    11    35 1   
    23    12    13 ar  
    24    12    32 1   
    25    13    14 ar  
    26    13    33 1   
    27    14    23 1   
    28    15    18 1   
    29    15    22 2   
    30    16    18 1   
    31    16    19 ar  
    32    16    20 ar  
    33    17    19 ar  
    34    17    24 1   
    35    18    34 1   
    36    21    23 2   
@<TRIPOS>SUBSTRUCTURE
     1 IJC         1 TEMP              0 ****  ****    0 ROOT
