@<TRIPOS>MOLECULE
IJD
   62    66     1     0     0
SMALL
No Charge or Current Charge


@<TRIPOS>ATOM
      1 C10         14.8560    35.7160   -15.2490 ca         1 IJD       0.342000
      2 C11         16.0050    38.2510   -15.1520 ca         1 IJD       0.326300
      3 C15         18.1060    39.8610   -15.3220 cx         1 IJD      -0.121900
      4 C16         10.7350    39.9550   -11.9140 c3         1 IJD       0.085600
      5 C17          9.5450    36.1160    -9.1110 ca         1 IJD       0.327000
      6 C22         15.8950    36.0380   -16.1400 ca         1 IJD      -0.167000
      7 C23         14.7300    33.1660   -15.7670 ca         1 IJD       0.204000
      8 C24         16.4740    37.3140   -16.0890 ca         1 IJD      -0.086000
      9 C25         15.5010    30.7200   -16.6240 ca         1 IJD       0.090900
     10 C26         12.0180    40.7970   -11.7550 c3         1 IJD       0.131800
     11 C28         13.7950    32.1460   -16.0510 ca         1 IJD       0.068400
     12 C1          11.6540    37.5480   -11.7810 cc         1 IJD      -0.011400
     13 C2          14.3830    36.7490   -14.3660 ca         1 IJD       0.217500
     14 N3           9.9620    38.2250   -10.3400 nc         1 IJD      -0.531800
     15 C4          11.2660    36.4950   -11.0050 cd         1 IJD      -0.179000
     16 N5          10.8320    38.5950   -11.3520 na         1 IJD       0.115800
     17 C6          10.2440    36.9440   -10.1370 cd         1 IJD       0.202000
     18 N7          14.9690    37.9910   -14.3220 nb         1 IJD      -0.633000
     19 C8          13.1870    36.4740   -13.4400 c          1 IJD       0.531600
     20 N9          12.6590    37.5620   -12.7510 ns         1 IJD      -0.384100
     21 C12         16.6360    39.6120   -15.0370 cx         1 IJD      -0.174000
     22 N13         14.2930    34.4220   -15.2940 nu         1 IJD      -0.974000
     23 C14         17.5890    39.9520   -13.9080 cx         1 IJD      -0.121900
     24 O18         12.6870    35.3570   -13.3190 o          1 IJD      -0.620100
     25 N19          9.9210    34.8120    -8.9920 nb         1 IJD      -0.664000
     26 N20         14.1740    30.9250   -16.4860 nb         1 IJD      -0.151500
     27 N21         16.4830    31.6090   -16.3630 nb         1 IJD      -0.151500
     28 N27         13.1240    40.4560   -12.6880 n3         1 IJD      -0.725600
     29 C29         16.0950    32.8280   -15.9320 ca         1 IJD       0.068400
     30 C30          9.3020    34.0410    -8.0680 ca         1 IJD       0.337900
     31 C31          8.5310    36.6690    -8.2940 ca         1 IJD      -0.138000
     32 C32         12.8210    40.7770   -14.1060 c3         1 IJD       0.142600
     33 C33         14.4010    41.0630   -12.2550 c3         1 IJD       0.142600
     34 C34          8.2890    34.5250    -7.2260 ca         1 IJD      -0.167000
     35 C35          7.8910    35.8650    -7.3370 ca         1 IJD      -0.080000
     36 H1          18.7480    39.0160   -15.5590 hc         1 IJD       0.074950
     37 H2          18.3740    40.7880   -15.8230 hc         1 IJD       0.074950
     38 H3          10.4460    39.8820   -12.9680 h1         1 IJD       0.071700
     39 H4           9.9230    40.4790   -11.3960 h1         1 IJD       0.071700
     40 H5          16.2450    35.3220   -16.8760 ha         1 IJD       0.131000
     41 H6          17.2820    37.5720   -16.7680 ha         1 IJD       0.127000
     42 H7          15.8100    29.7370   -16.9730 h5         1 IJD       0.054100
     43 H8          11.7470    41.8540   -11.8850 h1         1 IJD       0.053700
     44 H9          12.3540    40.6870   -10.7150 h1         1 IJD       0.053700
     45 H10         12.7250    32.3100   -15.9360 h4         1 IJD       0.032100
     46 H11         11.6750    35.4920   -11.0210 ha         1 IJD       0.171000
     47 H12         13.0720    38.4640   -13.0010 hn         1 IJD       0.394500
     48 H13         15.9530    40.3970   -15.3500 hc         1 IJD       0.085700
     49 H14         13.4310    34.3740   -14.7270 hn         1 IJD       0.549000
     50 H15         17.5210    40.9410   -13.4610 hc         1 IJD       0.074950
     51 H16         17.8600    39.1580   -13.2170 hc         1 IJD       0.074950
     52 H18         16.8930    33.5270   -15.6940 h4         1 IJD       0.032100
     53 H19          9.6300    33.0050    -8.0030 h4         1 IJD       0.017100
     54 H20          8.2440    37.7110    -8.4030 ha         1 IJD       0.137000
     55 H21         13.6680    40.5180   -14.7530 h1         1 IJD       0.038033
     56 H22         11.9510    40.2140   -14.4670 h1         1 IJD       0.038033
     57 H23         12.6140    41.8480   -14.2300 h1         1 IJD       0.038033
     58 H24         15.2150    40.7590   -12.9190 h1         1 IJD       0.038033
     59 H25         14.3390    42.1600   -12.2670 h1         1 IJD       0.038033
     60 H26         14.6600    40.7430   -11.2370 h1         1 IJD       0.038033
     61 H27          7.8230    33.8640    -6.5000 ha         1 IJD       0.121000
     62 H28          7.1080    36.2720    -6.6990 ha         1 IJD       0.116000
@<TRIPOS>BOND
     1     1     6 ar  
     2     1    13 ar  
     3     1    22 1   
     4     2     8 ar  
     5     2    18 ar  
     6     2    21 1   
     7     3    21 1   
     8     3    23 1   
     9     3    36 1   
    10     3    37 1   
    11     4    10 1   
    12     4    16 1   
    13     4    38 1   
    14     4    39 1   
    15     5    17 1   
    16     5    25 ar  
    17     5    31 ar  
    18     6     8 ar  
    19     6    40 1   
    20     7    11 ar  
    21     7    22 1   
    22     7    29 ar  
    23     8    41 1   
    24     9    26 ar  
    25     9    27 ar  
    26     9    42 1   
    27    10    28 1   
    28    10    43 1   
    29    10    44 1   
    30    11    26 ar  
    31    11    45 1   
    32    12    15 2   
    33    12    16 1   
    34    12    20 1   
    35    13    18 ar  
    36    13    19 1   
    37    14    16 1   
    38    14    17 2   
    39    15    17 1   
    40    15    46 1   
    41    19    20 1   
    42    19    24 2   
    43    20    47 1   
    44    21    23 1   
    45    21    48 1   
    46    22    49 1   
    47    23    50 1   
    48    23    51 1   
    49    25    30 ar  
    50    27    29 ar  
    51    28    32 1   
    52    28    33 1   
    53    29    52 1   
    54    30    34 ar  
    55    30    53 1   
    56    31    35 ar  
    57    31    54 1   
    58    32    55 1   
    59    32    56 1   
    60    32    57 1   
    61    33    58 1   
    62    33    59 1   
    63    33    60 1   
    64    34    35 ar  
    65    34    61 1   
    66    35    62 1   
@<TRIPOS>SUBSTRUCTURE
     1 IJD         1 TEMP              0 ****  ****    0 ROOT
