@<TRIPOS>MOLECULE
IJD
   62    66     1     0     0
SMALL
bcc


@<TRIPOS>ATOM
      1 C10         14.8320    35.6480   -15.2500 ca         1 IJD       0.138300
      2 C11         16.0070    38.1450   -14.9460 ca         1 IJD       0.391600
      3 C15         18.1050    39.6730   -14.8490 cx         1 IJD      -0.121900
      4 C16         10.6270    39.5240   -12.4120 c3         1 IJD       0.056300
      5 C17          9.7710    36.2920    -8.9600 ca         1 IJD       0.392300
      6 C22         15.8990    36.0320   -16.0760 ca         1 IJD      -0.185000
      7 C23         14.6820    33.2970   -16.0100 ca         1 IJD      -0.065000
      8 C24         16.4850    37.2640   -15.9180 ca         1 IJD      -0.169300
      9 C25         15.4090    31.0510   -17.2620 ca         1 IJD       0.616900
     10 C26         11.6750    40.5890   -12.1240 c3         1 IJD       0.131800
     11 C28         13.7530    32.4130   -16.5610 ca         1 IJD       0.396700
     12 C1          11.7670    37.3510   -11.7990 cc         1 IJD       0.039300
     13 C2          14.3670    36.6320   -14.3480 ca         1 IJD       0.282800
     14 N3          10.0250    38.0560   -10.6120 nc         1 IJD      -0.531800
     15 C4          11.5400    36.4050   -10.8240 cd         1 IJD      -0.262300
     16 N5          10.8250    38.3120   -11.6420 na         1 IJD       0.094400
     17 C6          10.4360    36.9020   -10.1130 cd         1 IJD       0.267300
     18 N7          14.9540    37.8180   -14.2200 nb         1 IJD      -0.633000
     19 C8          13.1880    36.3830   -13.4700 c          1 IJD       0.598600
     20 N9          12.7500    37.4530   -12.7680 ns         1 IJD      -0.451100
     21 C12         16.6280    39.4760   -14.7130 cx         1 IJD      -0.174000
     22 N13         14.2350    34.4210   -15.3390 nu         1 IJD      -0.642000
     23 C14         17.4720    39.7060   -13.4930 cx         1 IJD      -0.121900
     24 O18         12.6570    35.2800   -13.3890 o          1 IJD      -0.620100
     25 N19         10.2640    35.1270    -8.5400 nb         1 IJD      -0.664000
     26 N20         14.1100    31.2980   -17.1750 nb         1 IJD      -0.677500
     27 N21         16.3740    31.8050   -16.7620 nb         1 IJD      -0.677500
     28 N27         12.9410    40.3250   -12.7950 n3         1 IJD      -0.725600
     29 C29         16.0170    32.9130   -16.1300 ca         1 IJD       0.396700
     30 C30          9.6940    34.5360    -7.4990 ca         1 IJD       0.403200
     31 C31          8.6830    36.9060    -8.3390 ca         1 IJD      -0.221300
     32 C32         12.8880    40.7310   -14.1890 c3         1 IJD       0.142600
     33 C33         14.0540    40.9600   -12.1140 c3         1 IJD       0.142600
     34 C34          8.6080    35.0660    -6.8180 ca         1 IJD      -0.250300
     35 C35          8.0960    36.2790    -7.2550 ca         1 IJD      -0.098000
     36 H1          18.7180    38.8150   -15.0970 hc         1 IJD       0.074950
     37 H2          18.4530    40.6030   -15.2790 hc         1 IJD       0.074950
     38 H3          10.5920    39.2690   -13.4730 h1         1 IJD       0.071700
     39 H4           9.6410    39.8940   -12.1390 h1         1 IJD       0.071700
     40 H5          16.2630    35.3730   -16.8520 ha         1 IJD       0.149000
     41 H6          17.3110    37.5500   -16.5560 ha         1 IJD       0.145000
     42 H7          15.7060    30.1470   -17.7800 h5         1 IJD       0.054100
     43 H8          11.2680    41.5700   -12.4120 h1         1 IJD       0.053700
     44 H9          11.8390    40.6240   -11.0460 h1         1 IJD       0.053700
     45 H10         12.6910    32.6250   -16.4840 h4         1 IJD       0.032100
     46 H11         12.0920    35.5000   -10.6430 ha         1 IJD       0.189000
     47 H12         13.1530    38.3900   -12.9160 hn         1 IJD       0.394500
     48 H13         16.0110    40.3160   -15.0160 hc         1 IJD       0.085700
     49 H14         13.3950    34.3250   -14.7770 hn         1 IJD       0.493800
     50 H15         17.3810    40.6580   -12.9870 hc         1 IJD       0.074950
     51 H16         17.6430    38.8650   -12.8330 hc         1 IJD       0.074950
     52 H18         16.8160    33.5040   -15.6950 h4         1 IJD       0.032100
     53 H19         10.1250    33.5910    -7.1890 h4         1 IJD       0.017100
     54 H20          8.3080    37.8520    -8.7040 ha         1 IJD       0.155000
     55 H21         13.8200    40.4710   -14.6870 h1         1 IJD       0.038033
     56 H22         12.0850    40.2160   -14.7150 h1         1 IJD       0.038033
     57 H23         12.7270    41.8130   -14.3010 h1         1 IJD       0.038033
     58 H24         14.9840    40.7070   -12.6210 h1         1 IJD       0.038033
     59 H25         13.9690    42.0550   -12.0860 h1         1 IJD       0.038033
     60 H26         14.1210    40.5970   -11.0880 h1         1 IJD       0.038033
     61 H27          8.1810    34.5410    -5.9750 ha         1 IJD       0.139000
     62 H28          7.2490    36.7330    -6.7560 ha         1 IJD       0.134000
@<TRIPOS>BOND
     1     1     6 ar  
     2     1    13 ar  
     3     1    22 1   
     4     2     8 ar  
     5     2    18 ar  
     6     2    21 1   
     7     3    21 1   
     8     3    23 1   
     9     3    36 1   
    10     3    37 1   
    11     4    10 1   
    12     4    16 1   
    13     4    38 1   
    14     4    39 1   
    15     5    17 1   
    16     5    25 ar  
    17     5    31 ar  
    18     6     8 ar  
    19     6    40 1   
    20     7    11 ar  
    21     7    22 1   
    22     7    29 ar  
    23     8    41 1   
    24     9    26 ar  
    25     9    27 ar  
    26     9    42 1   
    27    10    28 1   
    28    10    43 1   
    29    10    44 1   
    30    11    26 ar  
    31    11    45 1   
    32    12    15 2   
    33    12    16 1   
    34    12    20 1   
    35    13    18 ar  
    36    13    19 1   
    37    14    16 1   
    38    14    17 2   
    39    15    17 1   
    40    15    46 1   
    41    19    20 1   
    42    19    24 2   
    43    20    47 1   
    44    21    23 1   
    45    21    48 1   
    46    22    49 1   
    47    23    50 1   
    48    23    51 1   
    49    25    30 ar  
    50    27    29 ar  
    51    28    32 1   
    52    28    33 1   
    53    29    52 1   
    54    30    34 ar  
    55    30    53 1   
    56    31    35 ar  
    57    31    54 1   
    58    32    55 1   
    59    32    56 1   
    60    32    57 1   
    61    33    58 1   
    62    33    59 1   
    63    33    60 1   
    64    34    35 ar  
    65    34    61 1   
    66    35    62 1   
@<TRIPOS>SUBSTRUCTURE
     1 IJD         1 TEMP              0 ****  ****    0 ROOT
