@<TRIPOS>MOLECULE
IJF
   15    15     1     0     0
SMALL
No Charge or Current Charge


@<TRIPOS>ATOM
      1 C4         -10.7650    -5.4020    -1.0590 ca         1 IJF       0.010100
      2 C5         -10.9030    -4.1340    -1.6400 ca         1 IJF      -0.142000
      3 C6         -12.1440    -3.4820    -1.5610 ca         1 IJF       0.342900
      4 N1         -13.2220    -4.0240    -0.9460 nb         1 IJF      -0.671000
      5 C3         -11.8760    -5.9710    -0.4190 ca         1 IJF      -0.110000
      6 O1         -14.1260    -6.0490     1.7250 oh         1 IJF      -0.663000
      7 C2         -13.0870    -5.2530    -0.3810 ca         1 IJF       0.345300
      8 Br1         -9.0990    -6.3360    -1.1350 br         1 IJF      -0.083100
      9 H1         -10.0680    -3.6560    -2.1450 ha         1 IJF       0.139000
     10 H2         -12.2820    -2.4960    -2.0030 h4         1 IJF       0.023100
     11 H3         -11.8090    -6.9500     0.0450 ha         1 IJF       0.157000
     12 H4         -14.9690    -6.4040     2.0900 ho         1 IJF       0.454000
     13 H5         -15.1840    -5.1870     0.1390 h1         1 IJF       0.043700
     14 H6         -14.5580    -6.8060    -0.1780 h1         1 IJF       0.043700
     15 C1         -14.3240    -5.8500     0.3080 c3         1 IJF       0.108300
@<TRIPOS>BOND
     1     1     2 ar  
     2     1     5 ar  
     3     1     8 1   
     4     2     3 ar  
     5     2     9 1   
     6     3     4 ar  
     7     3    10 1   
     8     4     7 ar  
     9     5     7 ar  
    10     5    11 1   
    11     6    12 1   
    12     6    15 1   
    13     7    15 1   
    14    13    15 1   
    15    14    15 1   
@<TRIPOS>SUBSTRUCTURE
     1 IJF         1 TEMP              0 ****  ****    0 ROOT
