@<TRIPOS>MOLECULE
IJF
   15    15     1     0     0
SMALL
abcg2


@<TRIPOS>ATOM
      1 C4         -10.7800    -5.3150    -0.8890 ca         1 IJF       0.010100
      2 C5         -10.9450    -4.2210    -1.7200 ca         1 IJF      -0.142000
      3 C6         -12.2190    -3.6770    -1.7950 ca         1 IJF       0.342900
      4 N1         -13.2610    -4.1420    -1.1240 nb         1 IJF      -0.671000
      5 C3         -11.8540    -5.8230    -0.1770 ca         1 IJF      -0.110000
      6 O1         -13.9840    -6.6720     1.3070 oh         1 IJF      -0.663000
      7 C2         -13.0850    -5.1950    -0.3310 ca         1 IJF       0.345300
      8 BR1         -9.0880    -6.1220    -0.7240 br         1 IJF      -0.083100
      9 H1         -10.1310    -3.7950    -2.2910 ha         1 IJF       0.139000
     10 H2         -12.3950    -2.8180    -2.4340 h4         1 IJF       0.023100
     11 H3         -11.7450    -6.6770     0.4750 ha         1 IJF       0.157000
     12 H4         -14.7960    -7.0320     1.6730 ho         1 IJF       0.454000
     13 H5         -14.7900    -4.8050     0.8610 h1         1 IJF       0.043700
     14 H6         -15.0250    -6.0320    -0.3760 h1         1 IJF       0.043700
     15 C1         -14.3180    -5.6730     0.3840 c3         1 IJF       0.108300
@<TRIPOS>BOND
     1     1     2 ar  
     2     1     5 ar  
     3     1     8 1   
     4     2     3 ar  
     5     2     9 1   
     6     3     4 ar  
     7     3    10 1   
     8     4     7 ar  
     9     5     7 ar  
    10     5    11 1   
    11     6    12 1   
    12     6    15 1   
    13     7    15 1   
    14    13    15 1   
    15    14    15 1   
@<TRIPOS>SUBSTRUCTURE
     1 IJF         1 TEMP              0 ****  ****    0 ROOT
