@<TRIPOS>MOLECULE
IJH
   46    49     1     0     0
SMALL
bcc


@<TRIPOS>ATOM
      1 C10         90.7270    -8.1060    18.1020 c3         1 IJH      -0.014900
      2 C11         90.5620   -10.7480    16.1220 c3         1 IJH      -0.012900
      3 C13         94.6080   -10.8890    11.6560 c3         1 IJH      -0.094700
      4 C16         95.9250   -13.0930     9.1020 cc         1 IJH      -0.240600
      5 C17         94.6200   -12.9520     8.7050 cd         1 IJH       0.365800
      6 C19         97.2570   -12.1850    11.0240 c3         1 IJH       0.027600
      7 C20         93.9400   -13.5470     7.5560 ca         1 IJH      -0.101500
      8 C21         94.6180   -14.3790     6.6600 ca         1 IJH      -0.113500
      9 C22         93.9620   -14.9420     5.5770 ca         1 IJH      -0.132500
     10 C23         92.6130   -14.6860     5.3610 ca         1 IJH      -0.128000
     11 C24         91.9300   -13.8590     6.2430 ca         1 IJH      -0.132500
     12 C25         92.5850   -13.2950     7.3280 ca         1 IJH      -0.113500
     13 C1          93.3290    -7.3750    14.0080 cc         1 IJH      -0.036000
     14 C2          93.5380    -8.1700    12.9240 cd         1 IJH      -0.257300
     15 C3          92.9480    -9.4660    12.8700 cd         1 IJH       0.381600
     16 N4          92.2030    -9.9440    13.8240 nc         1 IJH      -0.469800
     17 C5          92.5260    -7.8790    15.0450 cc         1 IJH      -0.077300
     18 N6          92.0140    -9.1500    14.8740 na         1 IJH       0.187200
     19 C7          91.2650    -9.4520    15.9740 cc         1 IJH      -0.122300
     20 C8          91.3590    -8.3290    16.7730 cd         1 IJH       0.052400
     21 N9          92.1340    -7.3730    16.1950 nd         1 IJH      -0.268600
     22 C14         94.8510   -11.7770    10.4840 cc         1 IJH       0.401800
     23 N15         96.0570   -12.3400    10.2310 na         1 IJH      -0.182900
     24 N18         93.9700   -12.1270     9.5830 nd         1 IJH      -0.673000
     25 H29         90.0660    -7.2380    18.0790 hc         1 IJH       0.046367
     26 H28         90.1380    -8.9640    18.4190 hc         1 IJH       0.046367
     27 H30         91.4810    -7.9180    18.8680 hc         1 IJH       0.046367
     28 H32         91.2570   -11.5890    16.0950 hc         1 IJH       0.051700
     29 H31         90.0340   -10.7830    17.0720 hc         1 IJH       0.051700
     30 H33         89.8310   -10.9040    15.3270 hc         1 IJH       0.051700
     31 H36         95.3210   -10.0590    11.6410 hc         1 IJH       0.053200
     32 H37         94.8110   -11.4380    12.5820 hc         1 IJH       0.053200
     33 H38         96.7540   -13.6470     8.6930 h4         1 IJH       0.176000
     34 H39         98.0800   -12.6880    10.5240 h1         1 IJH       0.054367
     35 H40         97.5090   -11.1320    11.1360 h1         1 IJH       0.054367
     36 H41         97.1280   -12.6240    12.0120 h1         1 IJH       0.054367
     37 H42         95.6690   -14.5940     6.8070 ha         1 IJH       0.135500
     38 H43         94.5070   -15.5840     4.8970 ha         1 IJH       0.128000
     39 H44         92.1010   -15.1250     4.5140 ha         1 IJH       0.129000
     40 H45         90.8790   -13.6500     6.0870 ha         1 IJH       0.128000
     41 H46         92.0420   -12.6540     8.0090 ha         1 IJH       0.135500
     42 H26         93.7520    -6.3830    14.0900 ha         1 IJH       0.164000
     43 H27         94.1420    -7.8310    12.0930 ha         1 IJH       0.150000
     44 H35         92.4700   -11.1790    11.7090 hc         1 IJH       0.081200
     45 H34         92.9840    -9.7870    10.7690 hc         1 IJH       0.081200
     46 C12         93.1780   -10.3510    11.6830 c3         1 IJH      -0.116700
@<TRIPOS>BOND
     1     1    20 1   
     2     1    25 1   
     3     1    26 1   
     4     1    27 1   
     5     2    19 1   
     6     2    28 1   
     7     2    29 1   
     8     2    30 1   
     9     3    22 1   
    10     3    31 1   
    11     3    32 1   
    12     3    46 1   
    13     4     5 2   
    14     4    23 1   
    15     4    33 1   
    16     5     7 1   
    17     5    24 1   
    18     6    23 1   
    19     6    34 1   
    20     6    35 1   
    21     6    36 1   
    22     7     8 ar  
    23     7    12 ar  
    24     8     9 ar  
    25     8    37 1   
    26     9    10 ar  
    27     9    38 1   
    28    10    11 ar  
    29    10    39 1   
    30    11    12 ar  
    31    11    40 1   
    32    12    41 1   
    33    13    14 2   
    34    13    17 1   
    35    13    42 1   
    36    14    15 1   
    37    14    43 1   
    38    15    16 2   
    39    15    46 1   
    40    16    18 1   
    41    17    18 1   
    42    17    21 2   
    43    18    19 1   
    44    19    20 2   
    45    20    21 1   
    46    22    23 1   
    47    22    24 2   
    48    44    46 1   
    49    45    46 1   
@<TRIPOS>SUBSTRUCTURE
     1 IJH         1 TEMP              0 ****  ****    0 ROOT
