@<TRIPOS>MOLECULE
IJH
   46    49     1     0     0
SMALL
No Charge or Current Charge


@<TRIPOS>ATOM
      1 C10         91.8760    -7.4660    18.3160 c3         1 IJH      -0.014900
      2 C11         93.0160   -10.3260    17.1810 c3         1 IJH      -0.012900
      3 C13         93.8430   -10.7450    11.3260 c3         1 IJH      -0.094700
      4 C16         94.9710   -13.7530     9.5280 cc         1 IJH      -0.208000
      5 C17         94.4580   -12.9610     8.5290 cd         1 IJH       0.300500
      6 C19         95.2090   -13.4670    12.0400 c3         1 IJH       0.056900
      7 C20         94.3910   -13.2870     7.0870 ca         1 IJH      -0.101500
      8 C21         94.8860   -14.5200     6.6030 ca         1 IJH      -0.095500
      9 C22         94.8220   -14.8300     5.2330 ca         1 IJH      -0.114500
     10 C23         94.2650   -13.9140     4.3270 ca         1 IJH      -0.110000
     11 C24         93.7700   -12.6860     4.7930 ca         1 IJH      -0.114500
     12 C25         93.8330   -12.3740     6.1630 ca         1 IJH      -0.095500
     13 C1          91.1610    -7.6750    13.4280 cc         1 IJH      -0.018000
     14 C2          91.4590    -8.6450    12.5030 cd         1 IJH      -0.174000
     15 C3          92.0970    -9.8640    12.9520 cd         1 IJH       0.316300
     16 N4          92.4380   -10.1440    14.2200 nc         1 IJH      -0.469800
     17 C5          91.5090    -7.9450    14.7760 cc         1 IJH      -0.128000
     18 N6          92.1110    -9.1280    15.0990 na         1 IJH       0.237900
     19 C7          92.3620    -9.1850    16.4430 cc         1 IJH      -0.122300
     20 C8          91.8750    -7.9740    16.8980 cd         1 IJH       0.052400
     21 N9          91.3490    -7.2120    15.8600 nd         1 IJH      -0.268600
     22 C14         94.2130   -11.8330    10.3500 cc         1 IJH       0.401800
     23 N15         94.8120   -13.0320    10.6910 na         1 IJH      -0.161500
     24 N18         93.9870   -11.7720     9.0490 nd         1 IJH      -0.673000
     25 H29         91.4240    -6.4690    18.3880 hc         1 IJH       0.046367
     26 H28         91.3090    -8.1380    18.9710 hc         1 IJH       0.046367
     27 H30         92.8980    -7.3980    18.7060 hc         1 IJH       0.046367
     28 H32         94.0260   -10.5110    16.7970 hc         1 IJH       0.051700
     29 H31         93.0980   -10.1140    18.2530 hc         1 IJH       0.051700
     30 H33         92.4350   -11.2490    17.0650 hc         1 IJH       0.051700
     31 H36         93.8730    -9.7740    10.8170 hc         1 IJH       0.053200
     32 H37         94.5940   -10.6910    12.1230 hc         1 IJH       0.053200
     33 H38         95.4190   -14.7370     9.4990 h4         1 IJH       0.158000
     34 H39         95.6080   -14.4880    12.0010 h1         1 IJH       0.054367
     35 H40         95.9820   -12.7940    12.4310 h1         1 IJH       0.054367
     36 H41         94.3390   -13.4470    12.7080 h1         1 IJH       0.054367
     37 H42         95.3220   -15.2470     7.2830 ha         1 IJH       0.117500
     38 H43         95.2070   -15.7820     4.8740 ha         1 IJH       0.110000
     39 H44         94.2170   -14.1550     3.2670 ha         1 IJH       0.111000
     40 H45         93.3380   -11.9740     4.0940 ha         1 IJH       0.110000
     41 H46         93.4430   -11.4170     6.5010 ha         1 IJH       0.117500
     42 H26         90.6830    -6.7380    13.1560 ha         1 IJH       0.146000
     43 H27         91.2220    -8.4980    11.4550 ha         1 IJH       0.132000
     44 H35         92.3930   -11.9280    12.4310 hc         1 IJH       0.081200
     45 H34         91.6920   -10.9570    11.1550 hc         1 IJH       0.081200
     46 C12         92.4420   -10.9410    11.9550 c3         1 IJH      -0.116700
@<TRIPOS>BOND
     1     1    20 1   
     2     1    25 1   
     3     1    26 1   
     4     1    27 1   
     5     2    19 1   
     6     2    28 1   
     7     2    29 1   
     8     2    30 1   
     9     3    22 1   
    10     3    31 1   
    11     3    32 1   
    12     3    46 1   
    13     4     5 2   
    14     4    23 1   
    15     4    33 1   
    16     5     7 1   
    17     5    24 1   
    18     6    23 1   
    19     6    34 1   
    20     6    35 1   
    21     6    36 1   
    22     7     8 ar  
    23     7    12 ar  
    24     8     9 ar  
    25     8    37 1   
    26     9    10 ar  
    27     9    38 1   
    28    10    11 ar  
    29    10    39 1   
    30    11    12 ar  
    31    11    40 1   
    32    12    41 1   
    33    13    14 2   
    34    13    17 1   
    35    13    42 1   
    36    14    15 1   
    37    14    43 1   
    38    15    16 2   
    39    15    46 1   
    40    16    18 1   
    41    17    18 1   
    42    17    21 2   
    43    18    19 1   
    44    19    20 2   
    45    20    21 1   
    46    22    23 1   
    47    22    24 2   
    48    44    46 1   
    49    45    46 1   
@<TRIPOS>SUBSTRUCTURE
     1 IJH         1 TEMP              0 ****  ****    0 ROOT
