@<TRIPOS>MOLECULE
IJJ
   53    55     1     0     0
SMALL
abcg2


@<TRIPOS>ATOM
      1 N1         105.7390    -4.1120    87.9540 nc         1 IJJ      -0.727000
      2 C7          99.7500   -10.3880    84.9360 c3         1 IJJ       0.144900
      3 C8         101.4590    -6.7250    88.1150 c3         1 IJJ      -0.050100
      4 N2         106.7990    -3.4070    86.1030 nd         1 IJJ      -0.365300
      5 C9         102.8740    -7.2900    88.3120 c3         1 IJJ       0.104000
      6 C1          98.5040    -9.8640    88.3390 ca         1 IJJ       0.113100
      7 O5         109.1290     0.7470    90.4650 os         1 IJJ      -0.325100
      8 C5         100.1920    -8.6460    87.1050 ca         1 IJJ      -0.163000
      9 C6          99.2550    -9.6670    87.1580 ca         1 IJJ       0.114100
     10 C4         100.4110    -7.8020    88.2030 ca         1 IJJ      -0.084300
     11 O4         107.5030    -0.9130    91.6200 os         1 IJJ      -0.328100
     12 C3          99.6730    -8.0080    89.3570 ca         1 IJJ      -0.105000
     13 O3         105.9570    -4.4860    85.8010 os         1 IJJ      -0.059700
     14 C2          98.7240    -9.0320    89.4270 ca         1 IJJ      -0.168000
     15 O2         104.1130    -6.5270    85.8630 o          1 IJJ      -0.557100
     16 N          103.9010    -6.2780    88.1250 ns         1 IJJ      -0.483900
     17 C           96.8260   -11.1210    89.4800 c3         1 IJJ       0.145900
     18 C11        105.3740    -4.8370    86.9470 cd         1 IJJ       0.437500
     19 C12        106.6340    -3.2210    87.3930 cc         1 IJJ       0.631500
     20 C13        107.3130    -2.1810    88.1580 ca         1 IJJ      -0.156500
     21 C18        107.0650    -2.0740    89.5350 ca         1 IJJ      -0.125000
     22 C17        107.6840    -1.0910    90.2880 ca         1 IJJ       0.098100
     23 C19        106.6130    -1.8000    92.2990 c3         1 IJJ       0.145900
     24 C16        108.5730    -0.1860    89.6610 ca         1 IJJ       0.140100
     25 C20        110.0320     1.6900    89.8850 c3         1 IJJ       0.145900
     26 C15        108.8170    -0.3020    88.2960 ca         1 IJJ      -0.184000
     27 C14        108.1920    -1.2930    87.5470 ca         1 IJJ      -0.058000
     28 H1          99.3940   -11.1690    84.2690 h1         1 IJJ       0.042700
     29 H2          99.5940    -9.4110    84.4740 h1         1 IJJ       0.042700
     30 H3         100.8150   -10.5300    85.1330 h1         1 IJJ       0.042700
     31 H4         101.4170    -6.2400    87.1370 hc         1 IJJ       0.055700
     32 H5         101.2760    -5.9580    88.8700 hc         1 IJJ       0.055700
     33 H6         102.9830    -7.6940    89.3190 h1         1 IJJ       0.065700
     34 H7         103.0570    -8.0940    87.6000 h1         1 IJJ       0.065700
     35 H8         100.7650    -8.4890    86.2020 ha         1 IJJ       0.126000
     36 H9          99.8240    -7.3690    90.2180 ha         1 IJJ       0.111000
     37 H10         98.1570    -9.1680    90.3370 ha         1 IJJ       0.119000
     38 H11        104.1850    -5.7120    88.9120 hn         1 IJJ       0.341500
     39 H12         96.1850   -11.9680    89.2460 h1         1 IJJ       0.041033
     40 H13         97.4660   -11.3690    90.3300 h1         1 IJJ       0.041033
     41 H14         96.2110   -10.2530    89.7300 h1         1 IJJ       0.041033
     42 H15        106.3820    -2.7680    90.0000 ha         1 IJJ       0.137000
     43 H16        106.6140    -1.4810    93.3380 h1         1 IJJ       0.043367
     44 H17        105.6020    -1.7270    91.8910 h1         1 IJJ       0.043367
     45 H18        106.9620    -2.8330    92.2300 h1         1 IJJ       0.043367
     46 H19        110.3450     2.3380    90.6990 h1         1 IJJ       0.044700
     47 H20        110.9010     1.1860    89.4580 h1         1 IJJ       0.044700
     48 H21        109.5340     2.2810    89.1120 h1         1 IJJ       0.044700
     49 H22        109.4960     0.3800    87.8070 ha         1 IJJ       0.125000
     50 H23        108.3930    -1.3650    86.4870 ha         1 IJJ       0.134000
     51 C10        104.3930    -5.9710    86.9200 c          1 IJJ       0.528600
     52 O           97.5990   -10.8810    88.3070 os         1 IJJ      -0.328100
     53 O1          98.9860   -10.5200    86.1330 os         1 IJJ      -0.330100
@<TRIPOS>BOND
     1     1    18 2   
     2     1    19 1   
     3     2    28 1   
     4     2    29 1   
     5     2    30 1   
     6     2    53 1   
     7     3     5 1   
     8     3    10 1   
     9     3    31 1   
    10     3    32 1   
    11     4    13 1   
    12     4    19 2   
    13     5    16 1   
    14     5    33 1   
    15     5    34 1   
    16     6     9 ar  
    17     6    14 ar  
    18     6    52 1   
    19     7    24 1   
    20     7    25 1   
    21     8     9 ar  
    22     8    10 ar  
    23     8    35 1   
    24     9    53 1   
    25    10    12 ar  
    26    11    22 1   
    27    11    23 1   
    28    12    14 ar  
    29    12    36 1   
    30    13    18 1   
    31    14    37 1   
    32    15    51 2   
    33    16    38 1   
    34    16    51 1   
    35    17    39 1   
    36    17    40 1   
    37    17    41 1   
    38    17    52 1   
    39    18    51 1   
    40    19    20 1   
    41    20    21 ar  
    42    20    27 ar  
    43    21    22 ar  
    44    21    42 1   
    45    22    24 ar  
    46    23    43 1   
    47    23    44 1   
    48    23    45 1   
    49    24    26 ar  
    50    25    46 1   
    51    25    47 1   
    52    25    48 1   
    53    26    27 ar  
    54    26    49 1   
    55    27    50 1   
@<TRIPOS>SUBSTRUCTURE
     1 IJJ         1 TEMP              0 ****  ****    0 ROOT
