@<TRIPOS>MOLECULE
IJJ
   53    55     1     0     0
SMALL
No Charge or Current Charge


@<TRIPOS>ATOM
      1 N1         105.7170    -3.9430    87.7670 nc         1 IJJ      -0.727000
      2 C7          99.7340   -10.9390    85.0560 c3         1 IJJ       0.144900
      3 C8         101.4140    -6.7190    87.7010 c3         1 IJJ      -0.050100
      4 N2         106.7690    -3.0680    85.9410 nd         1 IJJ      -0.365300
      5 C9         102.8440    -7.1610    88.0730 c3         1 IJJ       0.104000
      6 C1          98.5100    -9.8750    88.4400 ca         1 IJJ       0.113100
      7 O5         109.2580     0.6830    90.6690 os         1 IJJ      -0.325100
      8 C5         100.1910    -8.8310    87.0010 ca         1 IJJ      -0.163000
      9 C6          99.2500    -9.8610    87.2330 ca         1 IJJ       0.114100
     10 C4         100.3940    -7.8200    87.9590 ca         1 IJJ      -0.084300
     11 O4         107.5110    -1.1300    91.7500 os         1 IJJ      -0.328100
     12 C3          99.6580    -7.8400    89.1560 ca         1 IJJ      -0.105000
     13 O3         105.9190    -4.1230    85.5420 os         1 IJJ      -0.059700
     14 C2          98.7210    -8.8570    89.3990 ca         1 IJJ      -0.168000
     15 O2         104.0100    -6.3190    85.5760 o          1 IJJ      -0.557100
     16 N          103.8330    -6.1030    87.8450 ns         1 IJJ      -0.483900
     17 C           96.7990   -10.9870    89.8430 c3         1 IJJ       0.145900
     18 C11        105.3270    -4.5950    86.6770 cd         1 IJJ       0.437500
     19 C12        106.5910    -3.0310    87.2500 cc         1 IJJ       0.631500
     20 C13        107.2800    -2.0710    88.1360 ca         1 IJJ      -0.156500
     21 C18        107.0560    -2.0680    89.5350 ca         1 IJJ      -0.125000
     22 C17        107.7190    -1.1470    90.3790 ca         1 IJJ       0.098100
     23 C19        106.6140    -2.0410    92.4120 c3         1 IJJ       0.145900
     24 C16        108.6200    -0.2110    89.8230 ca         1 IJJ       0.140100
     25 C20        110.1910     1.6690    90.1910 c3         1 IJJ       0.145900
     26 C15        108.8480    -0.2080    88.4300 ca         1 IJJ      -0.184000
     27 C14        108.1850    -1.1270    87.6000 ca         1 IJJ      -0.058000
     28 H1          99.4040   -11.8130    84.4820 h1         1 IJJ       0.042700
     29 H2          99.5440   -10.0440    84.4500 h1         1 IJJ       0.042700
     30 H3         100.8160   -11.0310    85.2210 h1         1 IJJ       0.042700
     31 H4         101.3880    -6.4250    86.6450 hc         1 IJJ       0.055700
     32 H5         101.1570    -5.8200    88.2760 hc         1 IJJ       0.055700
     33 H6         102.8710    -7.4440    89.1330 h1         1 IJJ       0.065700
     34 H7         103.1200    -8.0450    87.4820 h1         1 IJJ       0.065700
     35 H8         100.7720    -8.8000    86.0830 ha         1 IJJ       0.126000
     36 H9          99.8130    -7.0640    89.9030 ha         1 IJJ       0.111000
     37 H10         98.1710    -8.8390    90.3350 ha         1 IJJ       0.119000
     38 H11        104.1740    -5.5670    88.6390 hn         1 IJJ       0.341500
     39 H12         96.1450   -11.8660    89.7960 h1         1 IJJ       0.041033
     40 H13         97.4380   -11.0860    90.7300 h1         1 IJJ       0.041033
     41 H14         96.1660   -10.0980    89.9610 h1         1 IJJ       0.041033
     42 H15        106.3620    -2.7890    89.9590 ha         1 IJJ       0.137000
     43 H16        106.6060    -1.8480    93.4920 h1         1 IJJ       0.043367
     44 H17        105.5890    -1.9200    92.0380 h1         1 IJJ       0.043367
     45 H18        106.9280    -3.0810    92.2550 h1         1 IJJ       0.043367
     46 H19        110.5730     2.2660    91.0280 h1         1 IJJ       0.044700
     47 H20        111.0460     1.1910    89.6970 h1         1 IJJ       0.044700
     48 H21        109.7070     2.3510    89.4800 h1         1 IJJ       0.044700
     49 H22        109.5340     0.4980    87.9720 ha         1 IJJ       0.125000
     50 H23        108.3840    -1.0970    86.5290 ha         1 IJJ       0.134000
     51 C10        104.3440    -5.7410    86.6070 c          1 IJJ       0.528600
     52 O           97.5940   -10.8940    88.6480 os         1 IJJ      -0.328100
     53 O1          99.0290   -10.8690    86.3080 os         1 IJJ      -0.330100
@<TRIPOS>BOND
     1     1    18 2   
     2     1    19 1   
     3     2    28 1   
     4     2    29 1   
     5     2    30 1   
     6     2    53 1   
     7     3     5 1   
     8     3    10 1   
     9     3    31 1   
    10     3    32 1   
    11     4    13 1   
    12     4    19 2   
    13     5    16 1   
    14     5    33 1   
    15     5    34 1   
    16     6     9 ar  
    17     6    14 ar  
    18     6    52 1   
    19     7    24 1   
    20     7    25 1   
    21     8     9 ar  
    22     8    10 ar  
    23     8    35 1   
    24     9    53 1   
    25    10    12 ar  
    26    11    22 1   
    27    11    23 1   
    28    12    14 ar  
    29    12    36 1   
    30    13    18 1   
    31    14    37 1   
    32    15    51 2   
    33    16    38 1   
    34    16    51 1   
    35    17    39 1   
    36    17    40 1   
    37    17    41 1   
    38    17    52 1   
    39    18    51 1   
    40    19    20 1   
    41    20    21 ar  
    42    20    27 ar  
    43    21    22 ar  
    44    21    42 1   
    45    22    24 ar  
    46    23    43 1   
    47    23    44 1   
    48    23    45 1   
    49    24    26 ar  
    50    25    46 1   
    51    25    47 1   
    52    25    48 1   
    53    26    27 ar  
    54    26    49 1   
    55    27    50 1   
@<TRIPOS>SUBSTRUCTURE
     1 IJJ         1 TEMP              0 ****  ****    0 ROOT
