@<TRIPOS>MOLECULE
IJK
   57    60     1     0     0
SMALL
bcc


@<TRIPOS>ATOM
      1 C02         34.4140   -48.7930    -8.1750 c5         1 IJK       0.245800
      2 C04         34.5380   -49.2540    -5.8280 c5         1 IJK      -0.096900
      3 C05         33.0720   -49.3740    -6.2380 c5         1 IJK       0.245800
      4 C06         31.9550   -48.6760    -8.3100 cc         1 IJK       0.812900
      5 N09         29.9480   -48.4460    -8.8240 na         1 IJK      -0.032400
      6 C13         29.8720   -46.1050   -11.1480 c3         1 IJK      -0.109700
      7 C16         27.6870   -45.7550   -14.0310 cc         1 IJK       0.785200
      8 C18         28.4530   -44.8720   -14.8510 cc         1 IJK      -0.236600
      9 C20         30.2250   -43.6310   -15.2440 cc         1 IJK      -0.102300
     10 C21         29.3270   -43.5850   -16.2970 cd         1 IJK       0.036400
     11 C23         31.5390   -42.9890   -15.0060 c3         1 IJK      -0.015900
     12 C24         29.4570   -42.8220   -17.5690 c3         1 IJK      -0.011900
     13 C26         25.6580   -47.1170   -13.7290 c3         1 IJK       0.239500
     14 C27         24.2210   -46.9300   -14.1880 c3         1 IJK      -0.110600
     15 C28         26.1250   -48.5580   -13.9030 c3         1 IJK      -0.110600
     16 N01         33.0830   -48.9480    -7.6220 nh         1 IJK      -0.804300
     17 C03         35.2920   -49.4830    -7.1360 c5         1 IJK      -0.096900
     18 N07         31.9690   -48.2390    -9.5920 nc         1 IJK      -0.754000
     19 C08         30.6860   -48.1080    -9.8810 cd         1 IJK       0.451800
     20 N10         30.7460   -48.8190    -7.7960 nd         1 IJK      -0.620800
     21 C12         28.5200   -48.4440    -8.6510 c3         1 IJK       0.046600
     22 C14         29.3670   -45.6270   -12.4750 cd         1 IJK       0.669300
     23 N15         30.1440   -44.8220   -13.1410 nc         1 IJK      -0.551800
     24 N17         28.1650   -46.1090   -12.8540 nd         1 IJK      -0.846000
     25 N19         29.6420   -44.4600   -14.3360 na         1 IJK       0.214200
     26 N22         28.2380   -44.3550   -16.0400 nd         1 IJK      -0.266600
     27 H29         34.4970   -49.2540    -9.1610 h1         1 IJK       0.047700
     28 H30         34.6850   -47.7370    -8.2850 h1         1 IJK       0.047700
     29 H33         34.8080   -49.9620    -5.0460 hc         1 IJK       0.051200
     30 H34         34.7390   -48.2490    -5.4500 hc         1 IJK       0.051200
     31 H36         32.4190   -48.7440    -5.6290 h1         1 IJK       0.047700
     32 H35         32.7110   -50.4040    -6.1400 h1         1 IJK       0.047700
     33 H37         30.8930   -47.8310   -11.9470 hc         1 IJK       0.073700
     34 H38         29.2430   -48.1540   -11.4540 hc         1 IJK       0.073700
     35 H43         29.1260   -45.8820   -10.3830 hc         1 IJK       0.073200
     36 H42         30.7840   -45.5680   -10.8890 hc         1 IJK       0.073200
     37 H45         32.3280   -43.7280   -14.8530 hc         1 IJK       0.053367
     38 H44         31.8200   -42.3750   -15.8580 hc         1 IJK       0.053367
     39 H46         31.5190   -42.3460   -14.1240 hc         1 IJK       0.053367
     40 H48         28.6720   -42.0700   -17.6620 hc         1 IJK       0.045367
     41 H47         30.4150   -42.3090   -17.6330 hc         1 IJK       0.045367
     42 H49         29.3760   -43.4840   -18.4320 hc         1 IJK       0.045367
     43 H51         25.7300   -46.8510   -12.6730 h1         1 IJK       0.077700
     44 H54         23.5620   -47.5950   -13.6320 hc         1 IJK       0.045867
     45 H52         23.8810   -45.9070   -14.0300 hc         1 IJK       0.045867
     46 H53         24.1130   -47.1680   -15.2490 hc         1 IJK       0.045867
     47 H56         25.4990   -49.2280   -13.3130 hc         1 IJK       0.045867
     48 H55         26.0580   -48.8650   -14.9480 hc         1 IJK       0.045867
     49 H57         27.1560   -48.6840   -13.5720 hc         1 IJK       0.045867
     50 H31         35.3570   -50.5520    -7.3520 hc         1 IJK       0.051200
     51 H32         36.3060   -49.0850    -7.1220 hc         1 IJK       0.051200
     52 H40         28.2320   -47.7250    -7.8860 h1         1 IJK       0.055367
     53 H39         28.0340   -48.1730    -9.5840 h1         1 IJK       0.055367
     54 H41         28.1770   -49.4340    -8.3550 h1         1 IJK       0.055367
     55 H50         26.2300   -45.9190   -15.3940 hn         1 IJK       0.464800
     56 C11         30.1510   -47.6150   -11.1780 c3         1 IJK      -0.107700
     57 N25         26.5090   -46.1900   -14.4620 nu         1 IJK      -0.844900
@<TRIPOS>BOND
     1     1    16 1   
     2     1    17 1   
     3     1    27 1   
     4     1    28 1   
     5     2     3 1   
     6     2    17 1   
     7     2    29 1   
     8     2    30 1   
     9     3    16 1   
    10     3    31 1   
    11     3    32 1   
    12     4    16 1   
    13     4    18 1   
    14     4    20 2   
    15     5    19 1   
    16     5    20 1   
    17     5    21 1   
    18     6    22 1   
    19     6    35 1   
    20     6    36 1   
    21     6    56 1   
    22     7     8 1   
    23     7    24 2   
    24     7    57 1   
    25     8    25 1   
    26     8    26 2   
    27     9    10 2   
    28     9    11 1   
    29     9    25 1   
    30    10    12 1   
    31    10    26 1   
    32    11    37 1   
    33    11    38 1   
    34    11    39 1   
    35    12    40 1   
    36    12    41 1   
    37    12    42 1   
    38    13    14 1   
    39    13    15 1   
    40    13    43 1   
    41    13    57 1   
    42    14    44 1   
    43    14    45 1   
    44    14    46 1   
    45    15    47 1   
    46    15    48 1   
    47    15    49 1   
    48    17    50 1   
    49    17    51 1   
    50    18    19 2   
    51    19    56 1   
    52    21    52 1   
    53    21    53 1   
    54    21    54 1   
    55    22    23 2   
    56    22    24 1   
    57    23    25 1   
    58    33    56 1   
    59    34    56 1   
    60    55    57 1   
@<TRIPOS>SUBSTRUCTURE
     1 IJK         1 TEMP              0 ****  ****    0 ROOT
