@<TRIPOS>MOLECULE
IJK
   57    60     1     0     0
SMALL
No Charge or Current Charge


@<TRIPOS>ATOM
      1 C02         34.4070   -48.2370    -7.9930 c5         1 IJK       0.245800
      2 C04         34.2240   -48.5990    -5.6350 c5         1 IJK      -0.096900
      3 C05         33.2340   -49.6040    -6.2870 c5         1 IJK       0.245800
      4 C06         32.1580   -49.0980    -8.4180 cc         1 IJK       0.812900
      5 N09         30.2040   -49.1780    -9.0760 na         1 IJK      -0.061700
      6 C13         29.9270   -46.4760   -11.1420 c3         1 IJK      -0.109700
      7 C16         27.6330   -45.6960   -13.8790 cc         1 IJK       0.456900
      8 C18         28.4400   -44.9230   -14.7390 cc         1 IJK      -0.222000
      9 C20         30.3850   -43.9510   -15.2570 cc         1 IJK      -0.102300
     10 C21         29.4290   -43.7290   -16.2310 cd         1 IJK       0.036400
     11 C23         31.8230   -43.5070   -15.1600 c3         1 IJK      -0.015900
     12 C24         29.5920   -42.9460   -17.5080 c3         1 IJK      -0.011900
     13 C26         25.2990   -46.6840   -13.6350 c3         1 IJK       0.239500
     14 C27         23.9230   -46.1020   -14.0080 c3         1 IJK      -0.110600
     15 C28         25.4280   -48.1690   -14.0270 c3         1 IJK      -0.110600
     16 N01         33.3410   -49.2390    -7.7270 nh         1 IJK      -0.804300
     17 C03         35.2980   -48.4370    -6.7430 c5         1 IJK      -0.096900
     18 N07         32.2220   -48.4550    -9.6080 nc         1 IJK      -0.754000
     19 C08         30.9740   -48.5070   -10.0180 cd         1 IJK       0.451800
     20 N10         30.9920   -49.5720    -8.0280 nd         1 IJK      -0.620800
     21 C12         28.7600   -49.4680    -9.1280 c3         1 IJK       0.075900
     22 C14         29.3880   -45.9120   -12.4320 cd         1 IJK       0.143300
     23 N15         30.2500   -45.1880   -13.1730 nc         1 IJK      -0.288800
     24 N17         28.0480   -46.2030   -12.7350 nd         1 IJK      -0.320000
     25 N19         29.7080   -44.7080   -14.3400 na         1 IJK       0.264900
     26 N22         28.2200   -44.3350   -15.9060 nd         1 IJK      -0.266600
     27 H29         34.9560   -48.4370    -8.9240 h1         1 IJK       0.047700
     28 H30         34.0070   -47.2130    -8.0320 h1         1 IJK       0.047700
     29 H33         34.6360   -48.9750    -4.6920 hc         1 IJK       0.051200
     30 H34         33.7300   -47.6440    -5.4200 hc         1 IJK       0.051200
     31 H36         32.2290   -49.4920    -5.8560 h1         1 IJK       0.047700
     32 H35         33.5590   -50.6420    -6.1270 h1         1 IJK       0.047700
     33 H37         31.3090   -47.8870   -12.0390 hc         1 IJK       0.073700
     34 H38         29.7140   -48.5510   -11.7460 hc         1 IJK       0.073700
     35 H43         29.1350   -46.4860   -10.3830 hc         1 IJK       0.073200
     36 H42         30.7170   -45.8270   -10.7420 hc         1 IJK       0.073200
     37 H45         32.4950   -44.3710   -15.1040 hc         1 IJK       0.053367
     38 H44         32.1150   -42.9090   -16.0310 hc         1 IJK       0.053367
     39 H46         31.9820   -42.8950   -14.2640 hc         1 IJK       0.053367
     40 H48         29.8670   -41.9060   -17.2950 hc         1 IJK       0.045367
     41 H47         30.3790   -43.3810   -18.1340 hc         1 IJK       0.045367
     42 H49         28.6660   -42.9340   -18.0940 hc         1 IJK       0.045367
     43 H51         25.4100   -46.6060   -12.5430 h1         1 IJK       0.077700
     44 H54         23.1240   -46.6540   -13.5000 hc         1 IJK       0.045867
     45 H52         23.8540   -45.0500   -13.7040 hc         1 IJK       0.045867
     46 H53         23.7480   -46.1640   -15.0890 hc         1 IJK       0.045867
     47 H56         24.6550   -48.7650   -13.5280 hc         1 IJK       0.045867
     48 H55         25.3200   -48.3010   -15.1100 hc         1 IJK       0.045867
     49 H57         26.4060   -48.5650   -13.7270 hc         1 IJK       0.045867
     50 H31         35.9200   -49.3360    -6.8350 hc         1 IJK       0.051200
     51 H32         35.9670   -47.5880    -6.5670 hc         1 IJK       0.051200
     52 H40         28.2000   -48.5300    -9.2310 h1         1 IJK       0.055367
     53 H39         28.5460   -50.1140    -9.9880 h1         1 IJK       0.055367
     54 H41         28.4440   -49.9760    -8.2080 h1         1 IJK       0.055367
     55 H50         26.1410   -45.4730   -15.2020 hn         1 IJK       0.520000
     56 C11         30.4880   -47.9080   -11.3120 c3         1 IJK      -0.107700
     57 N25         26.3480   -45.9070   -14.3030 nu         1 IJK      -0.900100
@<TRIPOS>BOND
     1     1    16 1   
     2     1    17 1   
     3     1    27 1   
     4     1    28 1   
     5     2     3 1   
     6     2    17 1   
     7     2    29 1   
     8     2    30 1   
     9     3    16 1   
    10     3    31 1   
    11     3    32 1   
    12     4    16 1   
    13     4    18 1   
    14     4    20 2   
    15     5    19 1   
    16     5    20 1   
    17     5    21 1   
    18     6    22 1   
    19     6    35 1   
    20     6    36 1   
    21     6    56 1   
    22     7     8 1   
    23     7    24 2   
    24     7    57 1   
    25     8    25 1   
    26     8    26 2   
    27     9    10 2   
    28     9    11 1   
    29     9    25 1   
    30    10    12 1   
    31    10    26 1   
    32    11    37 1   
    33    11    38 1   
    34    11    39 1   
    35    12    40 1   
    36    12    41 1   
    37    12    42 1   
    38    13    14 1   
    39    13    15 1   
    40    13    43 1   
    41    13    57 1   
    42    14    44 1   
    43    14    45 1   
    44    14    46 1   
    45    15    47 1   
    46    15    48 1   
    47    15    49 1   
    48    17    50 1   
    49    17    51 1   
    50    18    19 2   
    51    19    56 1   
    52    21    52 1   
    53    21    53 1   
    54    21    54 1   
    55    22    23 2   
    56    22    24 1   
    57    23    25 1   
    58    33    56 1   
    59    34    56 1   
    60    55    57 1   
@<TRIPOS>SUBSTRUCTURE
     1 IJK         1 TEMP              0 ****  ****    0 ROOT
