@<TRIPOS>MOLECULE
IJL
   16    16     1     0     0
SMALL
No Charge or Current Charge


@<TRIPOS>ATOM
      1 C4          -8.6170    -6.6540    -1.3640 ca         1 IJL      -0.090000
      2 C5          -7.2510    -6.8130    -1.0890 ca         1 IJL       0.211000
      3 C6          -6.8020    -6.8320     0.2390 ca         1 IJL      -0.090000
      4 C7          -7.7190    -6.6930     1.2950 ca         1 IJL      -0.075000
      5 N1         -11.3790    -6.2320     1.9260 nt         1 IJL      -0.602000
      6 C3          -9.5400    -6.5140    -0.3110 ca         1 IJL      -0.075000
      7 O1          -9.7000    -6.3980     3.3620 o          1 IJL      -0.596100
      8 C2          -9.1010    -6.5320     1.0370 ca         1 IJL      -0.139600
      9 I1          -5.8370    -7.0270    -2.7140 i          1 IJL      -0.305000
     10 H1          -8.9600    -6.6400    -2.3950 ha         1 IJL       0.131000
     11 H2          -5.7420    -6.9550     0.4480 ha         1 IJL       0.131000
     12 H3          -7.3500    -6.7110     2.3190 ha         1 IJL       0.127500
     13 H4         -12.0290    -6.1330     2.6920 hn         1 IJL       0.315000
     14 H5         -11.7060    -6.2180     0.9730 hn         1 IJL       0.315000
     15 H6         -10.5910    -6.3940    -0.5600 ha         1 IJL       0.127500
     16 C1         -10.0640    -6.3850     2.1970 c          1 IJL       0.615700
@<TRIPOS>BOND
     1     1     2 ar  
     2     1     6 ar  
     3     1    10 1   
     4     2     3 ar  
     5     2     9 1   
     6     3     4 ar  
     7     3    11 1   
     8     4     8 ar  
     9     4    12 1   
    10     5    13 1   
    11     5    14 1   
    12     5    16 1   
    13     6     8 ar  
    14     6    15 1   
    15     7    16 2   
    16     8    16 1   
@<TRIPOS>SUBSTRUCTURE
     1 IJL         1 TEMP              0 ****  ****    0 ROOT
