@<TRIPOS>MOLECULE
IJL
   16    16     1     0     0
SMALL
bcc


@<TRIPOS>ATOM
      1 C4          -8.6050    -6.5240    -1.3630 ca         1 IJL      -0.108000
      2 C5          -7.2870    -6.8350    -1.0620 ca         1 IJL       0.073900
      3 C6          -6.8580    -6.9360     0.2540 ca         1 IJL      -0.108000
      4 C7          -7.7680    -6.7240     1.2780 ca         1 IJL      -0.093000
      5 N1         -11.3300    -6.4520     1.9220 nt         1 IJL      -0.669000
      6 C3          -9.5060    -6.3280    -0.3270 ca         1 IJL      -0.093000
      7 O1          -9.6080    -5.8130     3.2300 o          1 IJL      -0.596100
      8 C2          -9.1010    -6.4340     1.0010 ca         1 IJL      -0.139600
      9 I1          -5.9170    -7.1500    -2.6230 i          1 IJL      -0.167900
     10 H1          -8.9400    -6.4290    -2.3870 ha         1 IJL       0.149000
     11 H2          -5.8310    -7.1740     0.4910 ha         1 IJL       0.149000
     12 H3          -7.4310    -6.7960     2.3030 ha         1 IJL       0.145500
     13 H4         -11.9950    -6.3370     2.6700 hn         1 IJL       0.315000
     14 H5         -11.6540    -6.9250     1.0970 hn         1 IJL       0.315000
     15 H6         -10.5260    -6.0690    -0.5820 ha         1 IJL       0.145500
     16 C1         -10.0310    -6.2060     2.1530 c          1 IJL       0.682700
@<TRIPOS>BOND
     1     1     2 ar  
     2     1     6 ar  
     3     1    10 1   
     4     2     3 ar  
     5     2     9 1   
     6     3     4 ar  
     7     3    11 1   
     8     4     8 ar  
     9     4    12 1   
    10     5    13 1   
    11     5    14 1   
    12     5    16 1   
    13     6     8 ar  
    14     6    15 1   
    15     7    16 2   
    16     8    16 1   
@<TRIPOS>SUBSTRUCTURE
     1 IJL         1 TEMP              0 ****  ****    0 ROOT
