@<TRIPOS>MOLECULE
IJM
   33    35     1     0     0
SMALL
abcg2


@<TRIPOS>ATOM
      1 C02         18.8890    16.5230   -15.9530 c          1 IJM       0.729200
      2 C03         19.9660    17.2700   -15.1690 cc         1 IJM      -0.017200
      3 C05         22.1530    18.1880   -15.4300 cc         1 IJM       0.142800
      4 C06         23.2520    18.4760   -16.3830 ca         1 IJM       0.029200
      5 C07         23.0670    19.5190   -17.2830 ca         1 IJM      -0.099000
      6 C08         24.0640    19.8870   -18.1680 ca         1 IJM      -0.074000
      7 C09         25.2750    19.2040   -18.1680 ca         1 IJM      -0.159500
      8 C10         26.3670    19.5620   -19.0640 cc         1 IJM       0.467000
      9 C15         25.4620    18.1450   -17.2840 ca         1 IJM      -0.023000
     10 C16         24.4600    17.7750   -16.4020 ca         1 IJM      -0.178300
     11 C17         24.7160    16.6310   -15.4590 c3         1 IJM       0.362300
     12 C21         22.1840    18.6090   -14.1280 cd         1 IJM      -0.389200
     13 C22         19.9450    17.6680   -13.8650 cd         1 IJM      -0.027100
     14 C24         21.0760    18.3710   -13.2690 c          1 IJM       0.524500
     15 F18         23.6250    15.8890   -15.2500 f          1 IJM      -0.104667
     16 F19         25.6590    15.8060   -15.9220 f          1 IJM      -0.104667
     17 F20         25.1320    17.0680   -14.2640 f          1 IJM      -0.104667
     18 N04         21.0790    17.5560   -15.9070 na         1 IJM      -0.564000
     19 N11         27.5820    19.0620   -19.0380 nd         1 IJM      -0.389000
     20 N12         28.2580    19.6600   -20.0140 nd         1 IJM      -0.044000
     21 N13         27.5240    20.4980   -20.6350 nc         1 IJM      -0.213800
     22 N14         26.3370    20.4530   -20.0590 na         1 IJM      -0.211700
     23 O01         17.8390    16.2480   -15.3620 o          1 IJM      -0.691000
     24 O23         18.9200    17.4630   -13.0320 oh         1 IJM      -0.491100
     25 O25         20.9940    18.7120   -12.0740 o          1 IJM      -0.669100
     26 O26         19.2070    16.2720   -17.1330 o          1 IJM      -0.691000
     27 H071        22.1320    20.0650   -17.2790 ha         1 IJM       0.142000
     28 H081        23.8820    20.7150   -18.8400 ha         1 IJM       0.108000
     29 H151        26.4030    17.6110   -17.3000 ha         1 IJM       0.155000
     30 H211        23.0490    19.1410   -13.7550 ha         1 IJM       0.192000
     31 H041        21.0290    17.2200   -16.8650 hn         1 IJM       0.542000
     32 H141        25.5840    21.0360   -20.4010 hn         1 IJM       0.387000
     33 H2          19.2090    17.8590   -12.1880 ho         1 IJM       0.466000
@<TRIPOS>BOND
     1     1     2 1   
     2     1    23 1   
     3     1    26 1   
     4     2    13 2   
     5     2    18 1   
     6     3     4 1   
     7     3    12 2   
     8     3    18 1   
     9     4     5 ar  
    10     4    10 ar  
    11     5     6 ar  
    12     5    27 1   
    13     6     7 ar  
    14     6    28 1   
    15     7     8 1   
    16     7     9 ar  
    17     8    19 2   
    18     8    22 1   
    19     9    10 ar  
    20     9    29 1   
    21    10    11 1   
    22    11    15 1   
    23    11    16 1   
    24    11    17 1   
    25    12    14 1   
    26    12    30 1   
    27    13    14 1   
    28    13    24 1   
    29    14    25 2   
    30    18    31 1   
    31    19    20 1   
    32    20    21 2   
    33    21    22 1   
    34    22    32 1   
    35    24    33 1   
@<TRIPOS>SUBSTRUCTURE
     1 IJM         1 TEMP              0 ****  ****    0 ROOT
