@<TRIPOS>MOLECULE
IJM
   33    35     1     0     0
SMALL
No Charge or Current Charge


@<TRIPOS>ATOM
      1 C02         18.5800    16.5460   -15.7700 c          1 IJM       0.729200
      2 C03         19.8110    17.2410   -15.2180 cc         1 IJM      -0.017200
      3 C05         22.1200    18.1280   -15.5790 cc         1 IJM       0.142800
      4 C06         23.2520    18.4510   -16.4500 ca         1 IJM       0.029200
      5 C07         23.0690    19.4560   -17.4170 ca         1 IJM      -0.099000
      6 C08         24.1110    19.8340   -18.2750 ca         1 IJM      -0.074000
      7 C09         25.3700    19.2080   -18.1840 ca         1 IJM      -0.159500
      8 C10         26.4780    19.5970   -19.0700 cc         1 IJM       0.467000
      9 C15         25.5540    18.1900   -17.2220 ca         1 IJM      -0.023000
     10 C16         24.5070    17.7910   -16.3570 ca         1 IJM      -0.178300
     11 C17         24.7490    16.6520   -15.3460 c3         1 IJM       0.362300
     12 C21         22.1800    18.5160   -14.2700 cd         1 IJM      -0.389200
     13 C22         19.9370    17.6150   -13.8770 cd         1 IJM      -0.027100
     14 C24         21.1220    18.2940   -13.3240 c          1 IJM       0.524500
     15 F18         23.7220    15.7720   -15.2980 f          1 IJM      -0.104667
     16 F19         25.8490    15.9200   -15.6380 f          1 IJM      -0.104667
     17 F20         24.9280    17.1260   -14.0930 f          1 IJM      -0.104667
     18 N04         20.9200    17.5810   -16.0580 na         1 IJM      -0.564000
     19 N11         27.6940    19.0890   -19.0900 nd         1 IJM      -0.389000
     20 N12         28.3840    19.7560   -20.0760 nd         1 IJM      -0.044000
     21 N13         27.6410    20.6530   -20.6640 nc         1 IJM      -0.213800
     22 N14         26.4410    20.5590   -20.0370 na         1 IJM      -0.211700
     23 O01         17.6250    16.2540   -15.0610 o          1 IJM      -0.691000
     24 O23         18.9930    17.4140   -12.9150 oh         1 IJM      -0.491100
     25 O25         21.2070    18.6390   -12.1490 o          1 IJM      -0.669100
     26 O26         18.5880    16.2870   -16.9680 o          1 IJM      -0.691000
     27 H071        22.1070    19.9600   -17.4930 ha         1 IJM       0.142000
     28 H081        23.9280    20.6200   -19.0040 ha         1 IJM       0.108000
     29 H151        26.5260    17.7050   -17.1520 ha         1 IJM       0.155000
     30 H211        23.0520    19.0140   -13.8650 ha         1 IJM       0.192000
     31 H041        20.8460    17.3560   -17.0520 hn         1 IJM       0.542000
     32 H141        25.6520    21.1430   -20.2840 hn         1 IJM       0.387000
     33 H2          19.3780    17.7950   -12.0900 ho         1 IJM       0.466000
@<TRIPOS>BOND
     1     1     2 1   
     2     1    23 1   
     3     1    26 1   
     4     2    13 2   
     5     2    18 1   
     6     3     4 1   
     7     3    12 2   
     8     3    18 1   
     9     4     5 ar  
    10     4    10 ar  
    11     5     6 ar  
    12     5    27 1   
    13     6     7 ar  
    14     6    28 1   
    15     7     8 1   
    16     7     9 ar  
    17     8    19 2   
    18     8    22 1   
    19     9    10 ar  
    20     9    29 1   
    21    10    11 1   
    22    11    15 1   
    23    11    16 1   
    24    11    17 1   
    25    12    14 1   
    26    12    30 1   
    27    13    14 1   
    28    13    24 1   
    29    14    25 2   
    30    18    31 1   
    31    19    20 1   
    32    20    21 2   
    33    21    22 1   
    34    22    32 1   
    35    24    33 1   
@<TRIPOS>SUBSTRUCTURE
     1 IJM         1 TEMP              0 ****  ****    0 ROOT
