@<TRIPOS>MOLECULE
IJN
   41    44     1     0     0
SMALL
No Charge or Current Charge


@<TRIPOS>ATOM
      1 C15         16.2180   -36.4970    17.3700 cc         1 IJN       0.212300
      2 C17         16.7260   -38.4480    16.5850 cd         1 IJN       0.463000
      3 C18         16.5010   -35.2200    18.1170 c3         1 IJN      -0.102400
      4 C19         17.5790   -39.5890    16.2290 ca         1 IJN      -0.117500
      5 C20         18.1940   -39.6650    14.9610 ca         1 IJN       0.139000
      6 C21         18.9920   -40.7720    14.6290 ca         1 IJN      -0.109000
      7 C22         19.1870   -41.8080    15.5590 ca         1 IJN      -0.089000
      8 C23         18.5870   -41.7310    16.8270 ca         1 IJN      -0.115000
      9 C24         17.7880   -40.6240    17.1620 ca         1 IJN      -0.067000
     10 C1          15.0020   -39.9870    14.6200 ca         1 IJN      -0.187000
     11 C2          14.4000   -40.4920    13.4620 ca         1 IJN       0.196100
     12 C3          13.5830   -39.6570    12.6810 ca         1 IJN      -0.228000
     13 C4          13.3430   -38.3370    13.0890 ca         1 IJN       0.010000
     14 O5          14.6320   -41.8140    13.1430 os         1 IJN      -0.334100
     15 C6          14.0660   -42.4320    11.9730 c3         1 IJN       0.146900
     16 C7          14.8440   -38.6350    15.0020 ca         1 IJN       0.103800
     17 C8          13.9490   -37.8260    14.2570 ca         1 IJN      -0.227600
     18 C9          13.5830   -36.4400    14.7340 c          1 IJN       0.592600
     19 N10         14.2170   -35.9940    15.9140 n          1 IJN      -0.280000
     20 O11         12.7740   -35.7490    14.1260 o          1 IJN      -0.547000
     21 C12         13.8890   -34.6490    16.4460 c3         1 IJN       0.087300
     22 N13         15.4430   -38.1140    16.1650 na         1 IJN      -0.071300
     23 C14         15.2000   -36.8000    16.4820 cd         1 IJN      -0.021400
     24 N16         17.1450   -37.5110    17.4280 nc         1 IJN      -0.632000
     25 Cl25        17.9980   -38.3730    13.7760 cl         1 IJN      -0.186000
     26 H1          17.4430   -35.2840    18.6750 hc         1 IJN       0.044367
     27 H2          16.5850   -34.3720    17.4290 hc         1 IJN       0.044367
     28 H3          15.7070   -35.0060    18.8410 hc         1 IJN       0.044367
     29 H4          19.4630   -40.8260    13.6500 ha         1 IJN       0.132000
     30 H5          19.8060   -42.6640    15.3000 ha         1 IJN       0.120000
     31 H6          18.7400   -42.5290    17.5500 ha         1 IJN       0.122000
     32 H7          17.3240   -40.5730    18.1460 ha         1 IJN       0.130000
     33 H8          15.5790   -40.6790    15.2210 ha         1 IJN       0.150000
     34 H9          13.0990   -40.0190    11.7790 ha         1 IJN       0.128000
     35 H10         12.6680   -37.7170    12.5010 ha         1 IJN       0.142000
     36 H11         14.3790   -43.4820    11.9090 h1         1 IJN       0.046700
     37 H12         12.9690   -42.4070    12.0100 h1         1 IJN       0.046700
     38 H13         14.4010   -41.9210    11.0610 h1         1 IJN       0.046700
     39 H14         13.8630   -34.6780    17.5420 h1         1 IJN       0.055367
     40 H15         14.6450   -33.9260    16.1150 h1         1 IJN       0.055367
     41 H16         12.9030   -34.3150    16.1010 h1         1 IJN       0.055367
@<TRIPOS>BOND
     1     1     3 1   
     2     1    23 2   
     3     1    24 1   
     4     2     4 1   
     5     2    22 1   
     6     2    24 2   
     7     3    26 1   
     8     3    27 1   
     9     3    28 1   
    10     4     5 ar  
    11     4     9 ar  
    12     5     6 ar  
    13     5    25 1   
    14     6     7 ar  
    15     6    29 1   
    16     7     8 ar  
    17     7    30 1   
    18     8     9 ar  
    19     8    31 1   
    20     9    32 1   
    21    10    11 ar  
    22    10    16 ar  
    23    10    33 1   
    24    11    12 ar  
    25    11    14 1   
    26    12    13 ar  
    27    12    34 1   
    28    13    17 ar  
    29    13    35 1   
    30    14    15 1   
    31    15    36 1   
    32    15    37 1   
    33    15    38 1   
    34    16    17 ar  
    35    16    22 1   
    36    17    18 1   
    37    18    19 1   
    38    18    20 2   
    39    19    21 1   
    40    19    23 1   
    41    21    39 1   
    42    21    40 1   
    43    21    41 1   
    44    22    23 1   
@<TRIPOS>SUBSTRUCTURE
     1 IJN         1 TEMP              0 ****  ****    0 ROOT
