@<TRIPOS>MOLECULE
IJN
   41    44     1     0     0
SMALL
abcg2


@<TRIPOS>ATOM
      1 C15         16.2890   -36.4350    17.2650 cc         1 IJN       0.212300
      2 C17         16.8520   -38.3510    16.4350 cd         1 IJN       0.463000
      3 C18         16.4540   -35.2560    18.1680 c3         1 IJN      -0.102400
      4 C19         17.6440   -39.5610    16.1730 ca         1 IJN      -0.117500
      5 C20         18.4090   -39.7020    15.0160 ca         1 IJN       0.139000
      6 C21         19.1840   -40.8280    14.7950 ca         1 IJN      -0.109000
      7 C22         19.2130   -41.8300    15.7540 ca         1 IJN      -0.089000
      8 C23         18.4770   -41.7010    16.9230 ca         1 IJN      -0.115000
      9 C24         17.7000   -40.5720    17.1280 ca         1 IJN      -0.067000
     10 C1          15.1720   -39.8860    14.3690 ca         1 IJN      -0.187000
     11 C2          14.3950   -40.4330    13.3490 ca         1 IJN       0.196100
     12 C3          13.3770   -39.6810    12.7570 ca         1 IJN      -0.228000
     13 C4          13.1430   -38.4020    13.2150 ca         1 IJN       0.010000
     14 O5          14.6960   -41.6880    13.0080 os         1 IJN      -0.334100
     15 C6          13.9630   -42.3140    11.9700 c3         1 IJN       0.146900
     16 C7          14.9480   -38.5860    14.7870 ca         1 IJN       0.103800
     17 C8          13.9060   -37.8350    14.2310 ca         1 IJN      -0.227600
     18 C9          13.5490   -36.4990    14.7270 c          1 IJN       0.592600
     19 N10         14.2660   -36.0510    15.8030 n          1 IJN      -0.280000
     20 O11         12.6400   -35.8460    14.2400 o          1 IJN      -0.547000
     21 C12         13.9140   -34.7830    16.4210 c3         1 IJN       0.087300
     22 N13         15.7110   -37.9610    15.7740 na         1 IJN      -0.071300
     23 C14         15.3640   -36.7310    16.2950 cd         1 IJN      -0.021400
     24 N16         17.1880   -37.4650    17.3220 nc         1 IJN      -0.632000
     25 CL25        18.3820   -38.4490    13.8240 cl         1 IJN      -0.186000
     26 H1          17.4090   -35.3450    18.6830 hc         1 IJN       0.044367
     27 H2          16.4620   -34.3090    17.6290 hc         1 IJN       0.044367
     28 H3          15.6780   -35.1940    18.9320 hc         1 IJN       0.044367
     29 H4          19.7630   -40.9200    13.8860 ha         1 IJN       0.132000
     30 H5          19.8170   -42.7110    15.5830 ha         1 IJN       0.120000
     31 H6          18.5060   -42.4800    17.6740 ha         1 IJN       0.122000
     32 H7          17.1160   -40.4700    18.0340 ha         1 IJN       0.130000
     33 H8          15.9310   -40.5090    14.8160 ha         1 IJN       0.150000
     34 H9          12.7620   -40.0810    11.9640 ha         1 IJN       0.128000
     35 H10         12.3400   -37.8230    12.7810 ha         1 IJN       0.142000
     36 H11         14.3810   -43.3110    11.8590 h1         1 IJN       0.046700
     37 H12         12.9020   -42.4020    12.2170 h1         1 IJN       0.046700
     38 H13         14.0660   -41.7810    11.0220 h1         1 IJN       0.046700
     39 H14         13.8470   -34.9020    17.5000 h1         1 IJN       0.055367
     40 H15         14.6490   -34.0150    16.1870 h1         1 IJN       0.055367
     41 H16         12.9470   -34.4650    16.0490 h1         1 IJN       0.055367
@<TRIPOS>BOND
     1     1     3 1   
     2     1    23 2   
     3     1    24 1   
     4     2     4 1   
     5     2    22 1   
     6     2    24 2   
     7     3    26 1   
     8     3    27 1   
     9     3    28 1   
    10     4     5 ar  
    11     4     9 ar  
    12     5     6 ar  
    13     5    25 1   
    14     6     7 ar  
    15     6    29 1   
    16     7     8 ar  
    17     7    30 1   
    18     8     9 ar  
    19     8    31 1   
    20     9    32 1   
    21    10    11 ar  
    22    10    16 ar  
    23    10    33 1   
    24    11    12 ar  
    25    11    14 1   
    26    12    13 ar  
    27    12    34 1   
    28    13    17 ar  
    29    13    35 1   
    30    14    15 1   
    31    15    36 1   
    32    15    37 1   
    33    15    38 1   
    34    16    17 ar  
    35    16    22 1   
    36    17    18 1   
    37    18    19 1   
    38    18    20 2   
    39    19    21 1   
    40    19    23 1   
    41    21    39 1   
    42    21    40 1   
    43    21    41 1   
    44    22    23 1   
@<TRIPOS>SUBSTRUCTURE
     1 IJN         1 TEMP              0 ****  ****    0 ROOT
