@<TRIPOS>MOLECULE
IJO
   15    15     1     0     0
SMALL
No Charge or Current Charge


@<TRIPOS>ATOM
      1 C4         -13.8720    -5.0680    -0.5730 ca         1 IJO       0.042100
      2 C5         -12.5970    -5.5080    -0.9470 ca         1 IJO      -0.185000
      3 C6         -11.8950    -6.3620    -0.0830 ca         1 IJO       0.382900
      4 N1         -12.3950    -6.7830     1.1020 nb         1 IJO      -0.750000
      5 C3         -14.3930    -5.5010     0.6530 ca         1 IJO      -0.164000
      6 C1         -13.4520    -7.6380     3.5450 c3         1 IJO       0.159900
      7 C2         -13.6270    -6.3550     1.4590 ca         1 IJO       0.588300
      8 Br1        -14.8770    -3.9030    -1.7080 br         1 IJO      -0.079100
      9 H1         -12.1510    -5.1980    -1.8870 ha         1 IJO       0.142000
     10 H2         -10.9010    -6.7210    -0.3460 h4         1 IJO       0.023100
     11 H3         -15.3770    -5.1860     0.9840 ha         1 IJO       0.152000
     12 H4         -14.0490    -7.8460     4.4420 h1         1 IJO       0.048367
     13 H5         -13.2300    -8.5970     3.0570 h1         1 IJO       0.048367
     14 H6         -12.5060    -7.1830     3.8660 h1         1 IJO       0.048367
     15 O1         -14.1710    -6.7610     2.6560 os         1 IJO      -0.458300
@<TRIPOS>BOND
     1     1     2 ar  
     2     1     5 ar  
     3     1     8 1   
     4     2     3 ar  
     5     2     9 1   
     6     3     4 ar  
     7     3    10 1   
     8     4     7 ar  
     9     5     7 ar  
    10     5    11 1   
    11     6    12 1   
    12     6    13 1   
    13     6    14 1   
    14     6    15 1   
    15     7    15 1   
@<TRIPOS>SUBSTRUCTURE
     1 IJO         1 TEMP              0 ****  ****    0 ROOT
