@<TRIPOS>MOLECULE
IJO
   15    15     1     0     0
SMALL
abcg2


@<TRIPOS>ATOM
      1 C4         -13.8630    -5.1000    -0.5210 ca         1 IJO       0.042100
      2 C5         -12.5950    -5.5310    -0.9060 ca         1 IJO      -0.185000
      3 C6         -11.9360    -6.3730    -0.0340 ca         1 IJO       0.382900
      4 N1         -12.4370    -6.7840     1.1290 nb         1 IJO      -0.750000
      5 C3         -14.4130    -5.5080     0.6720 ca         1 IJO      -0.164000
      6 C1         -13.4170    -7.6070     3.4650 c3         1 IJO       0.159900
      7 C2         -13.6370    -6.3640     1.4680 ca         1 IJO       0.588300
      8 BR1        -14.8300    -3.9450    -1.6470 br         1 IJO      -0.079100
      9 H1         -12.1360    -5.2300    -1.8360 ha         1 IJO       0.142000
     10 H2         -10.9460    -6.7380    -0.2850 h4         1 IJO       0.023100
     11 H3         -15.3950    -5.1930     0.9990 ha         1 IJO       0.152000
     12 H4         -14.0380    -7.7870     4.3380 h1         1 IJO       0.048367
     13 H5         -13.1920    -8.5570     2.9790 h1         1 IJO       0.048367
     14 H6         -12.4810    -7.1430     3.7770 h1         1 IJO       0.048367
     15 O1         -14.1750    -6.7500     2.6220 os         1 IJO      -0.458300
@<TRIPOS>BOND
     1     1     2 ar  
     2     1     5 ar  
     3     1     8 1   
     4     2     3 ar  
     5     2     9 1   
     6     3     4 ar  
     7     3    10 1   
     8     4     7 ar  
     9     5     7 ar  
    10     5    11 1   
    11     6    12 1   
    12     6    13 1   
    13     6    14 1   
    14     6    15 1   
    15     7    15 1   
@<TRIPOS>SUBSTRUCTURE
     1 IJO         1 TEMP              0 ****  ****    0 ROOT
