@<TRIPOS>MOLECULE
IJP
   23    23     1     0     0
SMALL
No Charge or Current Charge


@<TRIPOS>ATOM
      1 C4          25.6470   -53.2930    51.9600 ca         1 IJP       0.065600
      2 C5          24.2770   -53.0290    51.7620 ca         1 IJP       0.050100
      3 C6          23.7870   -51.7060    51.8470 ca         1 IJP       0.065600
      4 C7          27.4490   -54.9890    52.0480 c3         1 IJP       0.159400
      5 C8          21.8470   -50.1680    51.7150 c3         1 IJP       0.159400
      6 C1          24.6840   -50.6510    52.1330 ca         1 IJP      -0.158000
      7 C2          26.0640   -50.8990    52.3340 ca         1 IJP      -0.105600
      8 C3          26.5330   -52.2320    52.2440 ca         1 IJP      -0.158000
      9 C9          27.0270   -49.7520    52.6420 c          1 IJP       0.714600
     10 O1          26.0730   -54.6080    51.8640 os         1 IJP      -0.364100
     11 O2          23.4380   -54.0780    51.4870 oh         1 IJP      -0.539100
     12 O3          22.4340   -51.4800    51.6480 os         1 IJP      -0.364100
     13 O4          26.5820   -48.6140    52.7120 o          1 IJP      -0.720500
     14 O5          28.2110   -50.0090    52.8090 o          1 IJP      -0.720500
     15 H5          27.5620   -56.0740    51.9290 h1         1 IJP       0.030367
     16 H6          28.0920   -54.4980    51.3070 h1         1 IJP       0.030367
     17 H4          27.7970   -54.7190    53.0530 h1         1 IJP       0.030367
     18 H8          20.7680   -50.2240    51.5260 h1         1 IJP       0.030367
     19 H9          21.9950   -49.7250    52.7090 h1         1 IJP       0.030367
     20 H7          22.2890   -49.5030    50.9620 h1         1 IJP       0.030367
     21 H1          24.3240   -49.6290    52.2020 ha         1 IJP       0.137000
     22 H2          27.5910   -52.4260    52.3980 ha         1 IJP       0.137000
     23 H3          23.9970   -54.8870    51.4780 ho         1 IJP       0.457000
@<TRIPOS>BOND
     1     1     2 ar  
     2     1     8 ar  
     3     1    10 1   
     4     2     3 ar  
     5     2    11 1   
     6     3     6 ar  
     7     3    12 1   
     8     4    10 1   
     9     4    15 1   
    10     4    16 1   
    11     4    17 1   
    12     5    12 1   
    13     5    18 1   
    14     5    19 1   
    15     5    20 1   
    16     6     7 ar  
    17     6    21 1   
    18     7     8 ar  
    19     7     9 1   
    20     8    22 1   
    21     9    13 1   
    22     9    14 1   
    23    11    23 1   
@<TRIPOS>SUBSTRUCTURE
     1 IJP         1 TEMP              0 ****  ****    0 ROOT
