@<TRIPOS>MOLECULE
IJP
   23    23     1     0     0
SMALL
bcc


@<TRIPOS>ATOM
      1 C4          25.6630   -53.2560    51.9740 ca         1 IJP       0.065600
      2 C5          24.3030   -53.0110    51.7750 ca         1 IJP       0.050100
      3 C6          23.8250   -51.7020    51.8580 ca         1 IJP       0.065600
      4 C7          27.3710   -54.9070    52.0390 c3         1 IJP       0.136200
      5 C8          21.9490   -50.2620    51.7200 c3         1 IJP       0.136200
      6 C1          24.7040   -50.6600    52.1350 ca         1 IJP      -0.176000
      7 C2          26.0580   -50.9090    52.3340 ca         1 IJP      -0.105600
      8 C3          26.5350   -52.2130    52.2530 ca         1 IJP      -0.176000
      9 C9          27.0160   -49.7610    52.6400 c          1 IJP       0.925200
     10 O1          26.0140   -54.5610    51.8670 os         1 IJP      -0.340900
     11 O2          23.4270   -54.0040    51.5020 oh         1 IJP      -0.500100
     12 O3          22.4970   -51.5600    51.6530 os         1 IJP      -0.340900
     13 O4          26.5270   -48.6150    52.6640 o          1 IJP      -0.825800
     14 O5          28.2080   -50.0690    52.8400 o          1 IJP      -0.825800
     15 H5          27.4360   -55.9850    51.9130 h1         1 IJP       0.030367
     16 H6          28.0120   -54.4270    51.2940 h1         1 IJP       0.030367
     17 H4          27.7370   -54.6460    53.0350 h1         1 IJP       0.030367
     18 H8          20.8850   -50.3640    51.5190 h1         1 IJP       0.030367
     19 H9          22.0770   -49.8110    52.7080 h1         1 IJP       0.030367
     20 H7          22.3840   -49.5930    50.9720 h1         1 IJP       0.030367
     21 H1          24.3520   -49.6400    52.2010 ha         1 IJP       0.155000
     22 H2          27.5900   -52.3930    52.4100 ha         1 IJP       0.155000
     23 H3          23.8990   -54.8450    51.4640 ho         1 IJP       0.418000
@<TRIPOS>BOND
     1     1     2 ar  
     2     1     8 ar  
     3     1    10 1   
     4     2     3 ar  
     5     2    11 1   
     6     3     6 ar  
     7     3    12 1   
     8     4    10 1   
     9     4    15 1   
    10     4    16 1   
    11     4    17 1   
    12     5    12 1   
    13     5    18 1   
    14     5    19 1   
    15     5    20 1   
    16     6     7 ar  
    17     6    21 1   
    18     7     8 ar  
    19     7     9 1   
    20     8    22 1   
    21     9    13 1   
    22     9    14 1   
    23    11    23 1   
@<TRIPOS>SUBSTRUCTURE
     1 IJP         1 TEMP              0 ****  ****    0 ROOT
