@<TRIPOS>MOLECULE
IJQ
   58    62     1     0     0
SMALL
No Charge or Current Charge


@<TRIPOS>ATOM
      1 C13         97.3310   -11.4050    11.2740 ca         1 IJQ      -0.140000
      2 C15         97.1080    -8.6980    10.9300 ca         1 IJQ       0.362900
      3 C16         98.3090   -10.5790    11.8520 ca         1 IJQ      -0.064000
      4 C19         92.8270    -9.8170    11.4510 c3         1 IJQ       0.113000
      5 C23         91.1040    -6.9100    16.2720 cc         1 IJQ       0.259900
      6 C24         91.8280    -7.3110    15.1320 cc         1 IJQ      -0.258600
      7 C25         91.1320    -8.4160    14.6240 cd         1 IJQ      -0.153600
      8 C26         91.3550    -9.3150    13.4320 c          1 IJQ       0.623700
      9 C1          94.7450   -14.6900     7.0560 ca         1 IJQ      -0.076000
     10 C2          93.8650   -14.2470     8.0740 ca         1 IJQ      -0.124500
     11 C3          92.5830   -14.8440     8.1590 ca         1 IJQ      -0.076000
     12 C4          92.1970   -15.8500     7.2560 ca         1 IJQ      -0.122000
     13 C5          93.0810   -16.2770     6.2540 ca         1 IJQ      -0.098000
     14 C6          94.3550   -15.6960     6.1550 ca         1 IJQ      -0.122000
     15 C7          94.2800   -13.1910     9.0180 cc         1 IJQ       0.605500
     16 N8          93.4230   -12.7700    10.0050 nc         1 IJQ      -0.701000
     17 C9          94.1090   -11.8420    10.6410 cd         1 IJQ       0.474800
     18 N10         95.3330   -11.7340    10.0130 na         1 IJQ      -0.079200
     19 N11         95.4720   -12.6100     8.9710 nd         1 IJQ      -0.536800
     20 C12         96.2650   -10.8410    10.5420 ca         1 IJQ       0.458500
     21 C14         98.1880    -9.1940    11.6730 ca         1 IJQ      -0.170000
     22 N17         96.1680    -9.4970    10.3750 nb         1 IJQ      -0.701000
     23 N20         92.4230    -9.0400    12.6250 ns         1 IJQ      -0.492900
     24 N21         90.0540    -8.5670    15.5240 na         1 IJQ       0.177800
     25 N22         90.0440    -7.6300    16.5390 nd         1 IJQ      -0.517800
     26 O27         90.6230   -10.2590    13.1700 o          1 IJQ      -0.614100
     27 N29         93.3220    -5.5160    15.6080 nj         1 IJQ      -0.406800
     28 O30         93.6920    -6.9660    13.7070 o          1 IJQ      -0.638100
     29 C31         94.7750    -5.7320    15.9220 cy         1 IJQ       0.100000
     30 C32         94.9620    -4.2260    15.5520 cy         1 IJQ      -0.117400
     31 C33         93.6830    -4.3980    14.6720 cy         1 IJQ       0.100000
     32 C34         88.9860    -9.5820    15.4820 c3         1 IJQ       0.071900
     33 H40         97.3940   -12.4840    11.3920 ha         1 IJQ       0.153000
     34 H42         96.9890    -7.6260    10.7730 h4         1 IJQ       0.033100
     35 H43         99.1350   -11.0020    12.4200 ha         1 IJQ       0.126000
     36 H45         92.9300   -11.7480    12.4210 hc         1 IJQ       0.078200
     37 H44         94.4200   -10.8310    12.5130 hc         1 IJQ       0.078200
     38 H46         93.4630    -9.1830    10.8210 h1         1 IJQ       0.067700
     39 H47         91.9360   -10.0840    10.8660 h1         1 IJQ       0.067700
     40 H49         91.3210    -6.0900    16.9440 h4         1 IJQ       0.043100
     41 H35         95.7380   -14.2570     6.9580 ha         1 IJQ       0.129500
     42 H36         91.8770   -14.5330     8.9260 ha         1 IJQ       0.129500
     43 H37         91.2090   -16.2990     7.3340 ha         1 IJQ       0.113000
     44 H38         92.7810   -17.0550     5.5550 ha         1 IJQ       0.111000
     45 H39         95.0420   -16.0250     5.3790 ha         1 IJQ       0.113000
     46 H41         98.9170    -8.5110    12.0990 ha         1 IJQ       0.131000
     47 H48         92.9900    -8.2430    12.8910 hn         1 IJQ       0.367500
     48 H50         94.9590    -5.9580    16.9780 h1         1 IJQ       0.059950
     49 H51         95.3450    -6.4190    15.2830 h1         1 IJQ       0.059950
     50 H52         94.8380    -3.5380    16.3950 hc         1 IJQ       0.063700
     51 H53         95.8830    -3.9750    15.0160 hc         1 IJQ       0.063700
     52 H55         93.8950    -4.6460    13.6250 h1         1 IJQ       0.059950
     53 H54         92.9890    -3.5510    14.7250 h1         1 IJQ       0.059950
     54 H57         88.2920    -9.4330    16.3170 h1         1 IJQ       0.069367
     55 H58         88.4350    -9.4950    14.5390 h1         1 IJQ       0.069367
     56 H56         89.4280   -10.5820    15.5580 h1         1 IJQ       0.069367
     57 C18         93.5930   -11.0940    11.8440 c3         1 IJQ      -0.123700
     58 C28         93.0730    -6.5950    14.6970 c          1 IJQ       0.666700
@<TRIPOS>BOND
     1     1     3 ar  
     2     1    20 ar  
     3     1    33 1   
     4     2    21 ar  
     5     2    22 ar  
     6     2    34 1   
     7     3    21 ar  
     8     3    35 1   
     9     4    23 1   
    10     4    38 1   
    11     4    39 1   
    12     4    57 1   
    13     5     6 1   
    14     5    25 2   
    15     5    40 1   
    16     6     7 2   
    17     6    58 1   
    18     7     8 1   
    19     7    24 1   
    20     8    23 1   
    21     8    26 2   
    22     9    10 ar  
    23     9    14 ar  
    24     9    41 1   
    25    10    11 ar  
    26    10    15 1   
    27    11    12 ar  
    28    11    42 1   
    29    12    13 ar  
    30    12    43 1   
    31    13    14 ar  
    32    13    44 1   
    33    14    45 1   
    34    15    16 1   
    35    15    19 2   
    36    16    17 2   
    37    17    18 1   
    38    17    57 1   
    39    18    19 1   
    40    18    20 1   
    41    20    22 ar  
    42    21    46 1   
    43    23    47 1   
    44    24    25 1   
    45    24    32 1   
    46    27    29 1   
    47    27    31 1   
    48    27    58 1   
    49    28    58 2   
    50    29    30 1   
    51    29    48 1   
    52    29    49 1   
    53    30    31 1   
    54    30    50 1   
    55    30    51 1   
    56    31    52 1   
    57    31    53 1   
    58    32    54 1   
    59    32    55 1   
    60    32    56 1   
    61    36    57 1   
    62    37    57 1   
@<TRIPOS>SUBSTRUCTURE
     1 IJQ         1 TEMP              0 ****  ****    0 ROOT
