@<TRIPOS>MOLECULE
IJQ
   58    62     1     0     0
SMALL
abcg2


@<TRIPOS>ATOM
      1 C13         97.7940   -12.3460    10.8420 ca         1 IJQ      -0.140000
      2 C15         97.5610   -10.2630    12.5770 ca         1 IJQ       0.362900
      3 C16         98.9320   -11.8400    11.4450 ca         1 IJQ      -0.064000
      4 C19         93.3400    -9.9230    11.9260 c3         1 IJQ       0.113000
      5 C23         91.2990    -6.8210    16.3510 cc         1 IJQ       0.259900
      6 C24         92.0860    -7.2020    15.2540 cc         1 IJQ      -0.258600
      7 C25         91.4370    -8.3250    14.7430 cd         1 IJQ      -0.153600
      8 C26         91.6760    -9.1630    13.5350 c          1 IJQ       0.623700
      9 C1          94.7040   -14.4080     7.0690 ca         1 IJQ      -0.076000
     10 C2          93.7760   -13.9860     8.0210 ca         1 IJQ      -0.124500
     11 C3          92.4310   -14.3100     7.8500 ca         1 IJQ      -0.076000
     12 C4          92.0230   -15.0440     6.7450 ca         1 IJQ      -0.122000
     13 C5          92.9510   -15.4600     5.8000 ca         1 IJQ      -0.098000
     14 C6          94.2930   -15.1390     5.9660 ca         1 IJQ      -0.122000
     15 C7          94.2000   -13.2140     9.1890 cc         1 IJQ       0.605500
     16 N8          93.3380   -12.7350    10.1190 nc         1 IJQ      -0.701000
     17 C9          94.1000   -12.1090    10.9820 cd         1 IJQ       0.474800
     18 N10         95.3910   -12.2080    10.5690 na         1 IJQ      -0.079200
     19 N11         95.4510   -12.9180     9.4350 nd         1 IJQ      -0.536800
     20 C12         96.5830   -11.7420    11.1610 ca         1 IJQ       0.458500
     21 C14         98.8220   -10.7780    12.3340 ca         1 IJQ      -0.170000
     22 N17         96.4630   -10.7300    11.9940 nb         1 IJQ      -0.701000
     23 N20         92.9440    -9.2170    13.1180 ns         1 IJQ      -0.492900
     24 N21         90.3620    -8.5260    15.5330 na         1 IJQ       0.177800
     25 N22         90.2780    -7.6350    16.5090 nd         1 IJQ      -0.517800
     26 O27         90.7490    -9.7390    12.9810 o          1 IJQ      -0.614100
     27 N29         93.3700    -5.2340    14.8770 nj         1 IJQ      -0.406800
     28 O30         94.3360    -7.2110    14.4730 o          1 IJQ      -0.638100
     29 C31         94.4160    -4.3350    14.4070 cy         1 IJQ       0.100000
     30 C32         93.3860    -3.1880    14.4290 cy         1 IJQ      -0.117400
     31 C33         92.3340    -4.2010    14.9220 cy         1 IJQ       0.100000
     32 C34         89.3480    -9.5620    15.4630 c3         1 IJQ       0.071900
     33 H40         97.8460   -13.1780    10.1560 ha         1 IJQ       0.153000
     34 H42         97.4220    -9.4350    13.2620 h4         1 IJQ       0.033100
     35 H43         99.8960   -12.2780    11.2270 ha         1 IJQ       0.126000
     36 H45         92.6590   -11.8970    12.4740 hc         1 IJQ       0.078200
     37 H44         94.2920   -11.5200    13.0220 hc         1 IJQ       0.078200
     38 H46         94.2530    -9.4580    11.5600 h1         1 IJQ       0.067700
     39 H47         92.5770    -9.8110    11.1550 h1         1 IJQ       0.067700
     40 H49         91.4620    -6.0100    17.0440 h4         1 IJQ       0.043100
     41 H35         95.7510   -14.1610     7.1880 ha         1 IJQ       0.129500
     42 H36         91.7020   -13.9900     8.5820 ha         1 IJQ       0.129500
     43 H37         90.9760   -15.2900     6.6240 ha         1 IJQ       0.113000
     44 H38         92.6310   -16.0310     4.9380 ha         1 IJQ       0.111000
     45 H39         95.0220   -15.4580     5.2330 ha         1 IJQ       0.113000
     46 H41         99.6890   -10.3610    12.8250 ha         1 IJQ       0.131000
     47 H48         93.6540    -8.7070    13.6400 hn         1 IJQ       0.367500
     48 H50         95.2500    -4.2350    15.1040 h1         1 IJQ       0.059950
     49 H51         94.8060    -4.6000    13.4230 h1         1 IJQ       0.059950
     50 H52         93.6070    -2.3900    15.1340 hc         1 IJQ       0.063700
     51 H53         93.1740    -2.7560    13.4540 hc         1 IJQ       0.063700
     52 H55         91.5010    -4.3910    14.2430 h1         1 IJQ       0.059950
     53 H54         91.9440    -4.0060    15.9210 h1         1 IJQ       0.059950
     54 H57         88.8160    -9.5480    16.4080 h1         1 IJQ       0.069367
     55 H58         88.6490    -9.3720    14.6520 h1         1 IJQ       0.069367
     56 H56         89.8020   -10.5380    15.3230 h1         1 IJQ       0.069367
     57 C18         93.5940   -11.4110    12.1930 c3         1 IJQ      -0.123700
     58 C28         93.3470    -6.5630    14.8250 c          1 IJQ       0.666700
@<TRIPOS>BOND
     1     1     3 ar  
     2     1    20 ar  
     3     1    33 1   
     4     2    21 ar  
     5     2    22 ar  
     6     2    34 1   
     7     3    21 ar  
     8     3    35 1   
     9     4    23 1   
    10     4    38 1   
    11     4    39 1   
    12     4    57 1   
    13     5     6 1   
    14     5    25 2   
    15     5    40 1   
    16     6     7 2   
    17     6    58 1   
    18     7     8 1   
    19     7    24 1   
    20     8    23 1   
    21     8    26 2   
    22     9    10 ar  
    23     9    14 ar  
    24     9    41 1   
    25    10    11 ar  
    26    10    15 1   
    27    11    12 ar  
    28    11    42 1   
    29    12    13 ar  
    30    12    43 1   
    31    13    14 ar  
    32    13    44 1   
    33    14    45 1   
    34    15    16 1   
    35    15    19 2   
    36    16    17 2   
    37    17    18 1   
    38    17    57 1   
    39    18    19 1   
    40    18    20 1   
    41    20    22 ar  
    42    21    46 1   
    43    23    47 1   
    44    24    25 1   
    45    24    32 1   
    46    27    29 1   
    47    27    31 1   
    48    27    58 1   
    49    28    58 2   
    50    29    30 1   
    51    29    48 1   
    52    29    49 1   
    53    30    31 1   
    54    30    50 1   
    55    30    51 1   
    56    31    52 1   
    57    31    53 1   
    58    32    54 1   
    59    32    55 1   
    60    32    56 1   
    61    36    57 1   
    62    37    57 1   
@<TRIPOS>SUBSTRUCTURE
     1 IJQ         1 TEMP              0 ****  ****    0 ROOT
