@<TRIPOS>MOLECULE
IJR
   24    23     1     0     0
SMALL
bcc


@<TRIPOS>ATOM
      1 C4         -27.1220    45.7250    13.1950 c3         1 IJR      -0.105100
      2 C5         -28.1840    44.3180    11.4440 c          1 IJR       0.664100
      3 C6         -29.4530    44.7910     9.4280 c3         1 IJR       0.188100
      4 C7         -29.2750    45.4790     8.1580 c1         1 IJR      -0.093100
      5 C8         -29.1300    46.0520     7.1130 c1         1 IJR      -0.048200
      6 N1         -25.7540    44.8290    11.3950 ns         1 IJR      -0.593900
      7 N2         -28.2550    44.8920    10.2360 ns         1 IJR      -0.568900
      8 C3         -26.8990    44.5630    12.2330 c3         1 IJR       0.034700
      9 C1         -23.9420    44.2640     9.8900 c3         1 IJR      -0.179100
     10 C2         -25.1760    43.8590    10.6540 c          1 IJR       0.661100
     11 O1         -25.6370    42.7300    10.6030 o          1 IJR      -0.584100
     12 O2         -29.1070    43.6850    11.9330 o          1 IJR      -0.598100
     13 BR1        -28.9110    46.8940     5.5630 br         1 IJR      -0.011800
     14 H8         -27.9700    45.5220    13.8460 hc         1 IJR       0.050700
     15 H6         -26.2440    45.8700    13.8240 hc         1 IJR       0.050700
     16 H7         -27.3200    46.6530    12.6560 hc         1 IJR       0.050700
     17 H11        -30.3100    45.2210     9.9540 h1         1 IJR       0.076200
     18 H10        -29.6970    43.7420     9.2380 h1         1 IJR       0.076200
     19 H4         -25.3170    45.7360    11.4490 hn         1 IJR       0.317500
     20 H9         -27.4700    45.4170     9.8840 hn         1 IJR       0.327500
     21 H5         -26.7230    43.6550    12.8140 h1         1 IJR       0.097700
     22 H1         -24.1210    44.1390     8.8230 hc         1 IJR       0.062033
     23 H2         -23.6340    45.2920    10.0700 hc         1 IJR       0.062033
     24 H3         -23.1180    43.6030    10.1590 hc         1 IJR       0.062033
@<TRIPOS>BOND
     1     1     8 1   
     2     1    14 1   
     3     1    15 1   
     4     1    16 1   
     5     2     7 1   
     6     2     8 1   
     7     2    12 2   
     8     3     4 1   
     9     3     7 1   
    10     3    17 1   
    11     3    18 1   
    12     4     5 3   
    13     5    13 1   
    14     6     8 1   
    15     6    10 1   
    16     6    19 1   
    17     7    20 1   
    18     8    21 1   
    19     9    10 1   
    20     9    22 1   
    21     9    23 1   
    22     9    24 1   
    23    10    11 2   
@<TRIPOS>SUBSTRUCTURE
     1 IJR         1 TEMP              0 ****  ****    0 ROOT
