@<TRIPOS>MOLECULE
IJR
   24    23     1     0     0
SMALL
No Charge or Current Charge


@<TRIPOS>ATOM
      1 C4         -26.9470    45.4590    13.4550 c3         1 IJR      -0.105100
      2 C5         -28.3890    44.5290    11.5360 c          1 IJR       0.597100
      3 C6         -29.6050    44.9490     9.3790 c3         1 IJR       0.188100
      4 C7         -29.2410    45.3020     8.0040 c1         1 IJR      -0.093100
      5 C8         -28.9100    45.5900     6.8770 c1         1 IJR      -0.048200
      6 N1         -25.8870    44.8580    11.3000 ns         1 IJR      -0.526900
      7 N2         -28.4040    44.8820    10.2060 ns         1 IJR      -0.501900
      8 C3         -26.9920    44.5180    12.2320 c3         1 IJR       0.034700
      9 C1         -23.9570    44.5340     9.8360 c3         1 IJR      -0.179100
     10 C2         -25.0710    43.9360    10.6830 c          1 IJR       0.594100
     11 O1         -25.2370    42.7310    10.7980 o          1 IJR      -0.584100
     12 O2         -29.4230    44.2430    12.1270 o          1 IJR      -0.598100
     13 Br1        -28.4080    46.0170     5.2110 br         1 IJR      -0.011800
     14 H8         -27.7130    45.1790    14.1880 hc         1 IJR       0.050700
     15 H6         -25.9690    45.4030    13.9490 hc         1 IJR       0.050700
     16 H7         -27.1230    46.4990    13.1540 hc         1 IJR       0.050700
     17 H11        -30.2890    45.7060     9.7850 h1         1 IJR       0.076200
     18 H10        -30.1120    43.9740     9.3870 h1         1 IJR       0.076200
     19 H4         -25.6470    45.8350    11.1650 hn         1 IJR       0.317500
     20 H9         -27.5090    45.0970     9.7830 hn         1 IJR       0.327500
     21 H5         -26.8460    43.4910    12.5910 h1         1 IJR       0.097700
     22 H1         -24.3950    45.2200     9.1020 hc         1 IJR       0.062033
     23 H2         -23.3590    45.2100    10.4590 hc         1 IJR       0.062033
     24 H3         -23.3350    43.7700     9.3560 hc         1 IJR       0.062033
@<TRIPOS>BOND
     1     1     8 1   
     2     1    14 1   
     3     1    15 1   
     4     1    16 1   
     5     2     7 1   
     6     2     8 1   
     7     2    12 2   
     8     3     4 1   
     9     3     7 1   
    10     3    17 1   
    11     3    18 1   
    12     4     5 3   
    13     5    13 1   
    14     6     8 1   
    15     6    10 1   
    16     6    19 1   
    17     7    20 1   
    18     8    21 1   
    19     9    10 1   
    20     9    22 1   
    21     9    23 1   
    22     9    24 1   
    23    10    11 2   
@<TRIPOS>SUBSTRUCTURE
     1 IJR         1 TEMP              0 ****  ****    0 ROOT
