@<TRIPOS>MOLECULE
IJT
   45    48     1     0     0
SMALL
No Charge or Current Charge


@<TRIPOS>ATOM
      1 C11        -54.1070    78.7530   -12.6040 c3         1 IJT      -0.140400
      2 O12        -55.5790    76.3680   -11.7980 os         1 IJT      -0.446300
      3 C13        -56.3650    75.2350   -11.3410 c3         1 IJT       0.137300
      4 C16        -58.9850    76.4290    -8.8950 c5         1 IJT       0.165800
      5 C17        -57.8870    75.7930    -7.9860 c5         1 IJT       0.148800
      6 C19        -58.7690    77.0870   -11.3970 c3         1 IJT       0.204100
      7 C20        -58.6020    74.8200    -7.0430 ca         1 IJT      -0.075300
      8 C21        -59.1280    73.5970    -7.5130 ca         1 IJT      -0.097500
      9 C22        -59.7860    72.7160    -6.6370 ca         1 IJT      -0.113000
     10 C23        -59.9250    73.0480    -5.2800 ca         1 IJT      -0.109000
     11 C24        -59.4050    74.2610    -4.8000 ca         1 IJT      -0.113000
     12 C25        -58.7470    75.1410    -5.6770 ca         1 IJT      -0.097500
     13 C1         -53.0200    73.8070   -16.5910 ca         1 IJT      -0.092000
     14 C2         -52.2950    74.9320   -17.0110 ca         1 IJT      -0.116000
     15 C3         -52.3810    76.1320   -16.2850 ca         1 IJT      -0.061000
     16 C4         -53.8300    73.8820   -15.4470 ca         1 IJT      -0.090000
     17 C5         -53.9310    75.0750   -14.7050 ca         1 IJT       0.267000
     18 C6         -53.1870    76.2290   -15.1350 ca         1 IJT       0.198000
     19 N7         -53.2450    77.4070   -14.4590 nb         1 IJT      -0.624000
     20 C8         -54.0450    77.4300   -13.3560 ca         1 IJT       0.335300
     21 C9         -54.7860    76.2810   -12.9250 ca         1 IJT       0.545300
     22 N10        -54.7270    75.1030   -13.6020 nb         1 IJT      -0.739000
     23 C14        -57.1640    75.6060   -10.0880 c2         1 IJT       0.581200
     24 N15        -58.2500    76.4600   -10.1660 nh         1 IJT      -0.756600
     25 N18        -56.9000    75.1520    -8.9120 n2         1 IJT      -0.617900
     26 H31        -53.4930    79.5260   -13.0820 hc         1 IJT       0.060033
     27 H30        -55.1370    79.1250   -12.5600 hc         1 IJT       0.060033
     28 H32        -53.7500    78.6310   -11.5750 hc         1 IJT       0.060033
     29 H33        -57.0630    74.9060   -12.1210 h1         1 IJT       0.075200
     30 H34        -55.7130    74.3860   -11.1050 h1         1 IJT       0.075200
     31 H1         -59.2950    77.4250    -8.5520 h1         1 IJT       0.053200
     32 H35        -59.8760    75.7900    -8.9780 h1         1 IJT       0.053200
     33 H2         -57.3760    76.5760    -7.4090 h1         1 IJT       0.080700
     34 H36        -59.6380    77.7200   -11.1700 h1         1 IJT       0.039700
     35 H37        -57.9990    77.7150   -11.8620 h1         1 IJT       0.039700
     36 H38        -59.0800    76.3190   -12.1170 h1         1 IJT       0.039700
     37 H39        -59.0270    73.3280    -8.5620 ha         1 IJT       0.117000
     38 H40        -60.1870    71.7770    -7.0110 ha         1 IJT       0.111500
     39 H41        -60.4340    72.3660    -4.6010 ha         1 IJT       0.111000
     40 H42        -59.5110    74.5200    -3.7490 ha         1 IJT       0.111500
     41 H43        -58.3500    76.0780    -5.2930 ha         1 IJT       0.117000
     42 H26        -52.9540    72.8770   -17.1520 ha         1 IJT       0.118000
     43 H27        -51.6670    74.8760   -17.8970 ha         1 IJT       0.119000
     44 H28        -51.8160    77.0000   -16.6160 ha         1 IJT       0.132000
     45 H29        -54.3890    73.0070   -15.1270 ha         1 IJT       0.131000
@<TRIPOS>BOND
     1     1    20 1   
     2     1    26 1   
     3     1    27 1   
     4     1    28 1   
     5     2     3 1   
     6     2    21 1   
     7     3    23 1   
     8     3    29 1   
     9     3    30 1   
    10     4     5 1   
    11     4    24 1   
    12     4    31 1   
    13     4    32 1   
    14     5     7 1   
    15     5    25 1   
    16     5    33 1   
    17     6    24 1   
    18     6    34 1   
    19     6    35 1   
    20     6    36 1   
    21     7     8 ar  
    22     7    12 ar  
    23     8     9 ar  
    24     8    37 1   
    25     9    10 ar  
    26     9    38 1   
    27    10    11 ar  
    28    10    39 1   
    29    11    12 ar  
    30    11    40 1   
    31    12    41 1   
    32    13    14 ar  
    33    13    16 ar  
    34    13    42 1   
    35    14    15 ar  
    36    14    43 1   
    37    15    18 ar  
    38    15    44 1   
    39    16    17 ar  
    40    16    45 1   
    41    17    18 ar  
    42    17    22 ar  
    43    18    19 ar  
    44    19    20 ar  
    45    20    21 ar  
    46    21    22 ar  
    47    23    24 1   
    48    23    25 2   
@<TRIPOS>SUBSTRUCTURE
     1 IJT         1 TEMP              0 ****  ****    0 ROOT
