@<TRIPOS>MOLECULE
IJT
   45    48     1     0     0
SMALL
abcg2


@<TRIPOS>ATOM
      1 C11        -54.0920    78.5740   -12.3130 c3         1 IJT      -0.140400
      2 O12        -55.4150    76.2300   -11.6590 os         1 IJT      -0.446300
      3 C13        -56.1740    75.0940   -11.2530 c3         1 IJT       0.137300
      4 C16        -58.7250    76.5030    -9.0000 c5         1 IJT       0.165800
      5 C17        -57.7950    75.7200    -8.0490 c5         1 IJT       0.148800
      6 C19        -58.5850    76.8820   -11.4560 c3         1 IJT       0.204100
      7 C20        -58.5490    74.8150    -7.1110 ca         1 IJT      -0.075300
      8 C21        -58.6480    73.4460    -7.3300 ca         1 IJT      -0.097500
      9 C22        -59.3900    72.6450    -6.4700 ca         1 IJT      -0.113000
     10 C23        -60.0450    73.2050    -5.3820 ca         1 IJT      -0.109000
     11 C24        -59.9510    74.5720    -5.1560 ca         1 IJT      -0.113000
     12 C25        -59.2030    75.3680    -6.0110 ca         1 IJT      -0.097500
     13 C1         -53.3010    74.0030   -16.6850 ca         1 IJT      -0.092000
     14 C2         -52.6150    75.1660   -17.0790 ca         1 IJT      -0.116000
     15 C3         -52.6400    76.2860   -16.2860 ca         1 IJT      -0.061000
     16 C4         -54.0040    73.9690   -15.5050 ca         1 IJT      -0.090000
     17 C5         -54.0420    75.1080   -14.6810 ca         1 IJT       0.267000
     18 C6         -53.3550    76.2740   -15.0750 ca         1 IJT       0.198000
     19 N7         -53.3770    77.3890   -14.2940 nb         1 IJT      -0.624000
     20 C8         -54.0460    77.3640   -13.1850 ca         1 IJT       0.335300
     21 C9         -54.7460    76.1600   -12.8060 ca         1 IJT       0.545300
     22 N10        -54.7410    75.0830   -13.5140 nb         1 IJT      -0.739000
     23 C14        -57.0050    75.5310   -10.0900 c2         1 IJT       0.581200
     24 N15        -57.9340    76.5250   -10.2190 nh         1 IJT      -0.756600
     25 N18        -56.8600    75.0240    -8.9270 n2         1 IJT      -0.617900
     26 H31        -53.5070    79.3740   -12.7590 hc         1 IJT       0.060033
     27 H30        -55.1160    78.9250   -12.1780 hc         1 IJT       0.060033
     28 H32        -53.6930    78.3630   -11.3190 hc         1 IJT       0.060033
     29 H33        -56.8010    74.7340   -12.0740 h1         1 IJT       0.075200
     30 H34        -55.5190    74.2790   -10.9430 h1         1 IJT       0.075200
     31 H1         -58.9550    77.5080    -8.6450 h1         1 IJT       0.053200
     32 H35        -59.6740    75.9760    -9.1680 h1         1 IJT       0.053200
     33 H2         -57.2200    76.4310    -7.4410 h1         1 IJT       0.080700
     34 H36        -59.0290    77.8710   -11.3560 h1         1 IJT       0.039700
     35 H37        -57.8720    76.9300   -12.2750 h1         1 IJT       0.039700
     36 H38        -59.3810    76.1790   -11.7260 h1         1 IJT       0.039700
     37 H39        -58.1410    73.0020    -8.1770 ha         1 IJT       0.117000
     38 H40        -59.4540    71.5800    -6.6520 ha         1 IJT       0.111500
     39 H41        -60.6230    72.5800    -4.7130 ha         1 IJT       0.111000
     40 H42        -60.4550    75.0190    -4.3080 ha         1 IJT       0.111500
     41 H43        -59.1270    76.4340    -5.8240 ha         1 IJT       0.117000
     42 H26        -53.2740    73.1270   -17.3200 ha         1 IJT       0.118000
     43 H27        -52.0670    75.1740   -18.0110 ha         1 IJT       0.119000
     44 H28        -52.1180    77.1900   -16.5730 ha         1 IJT       0.132000
     45 H29        -54.5350    73.0790   -15.1940 ha         1 IJT       0.131000
@<TRIPOS>BOND
     1     1    20 1   
     2     1    26 1   
     3     1    27 1   
     4     1    28 1   
     5     2     3 1   
     6     2    21 1   
     7     3    23 1   
     8     3    29 1   
     9     3    30 1   
    10     4     5 1   
    11     4    24 1   
    12     4    31 1   
    13     4    32 1   
    14     5     7 1   
    15     5    25 1   
    16     5    33 1   
    17     6    24 1   
    18     6    34 1   
    19     6    35 1   
    20     6    36 1   
    21     7     8 ar  
    22     7    12 ar  
    23     8     9 ar  
    24     8    37 1   
    25     9    10 ar  
    26     9    38 1   
    27    10    11 ar  
    28    10    39 1   
    29    11    12 ar  
    30    11    40 1   
    31    12    41 1   
    32    13    14 ar  
    33    13    16 ar  
    34    13    42 1   
    35    14    15 ar  
    36    14    43 1   
    37    15    18 ar  
    38    15    44 1   
    39    16    17 ar  
    40    16    45 1   
    41    17    18 ar  
    42    17    22 ar  
    43    18    19 ar  
    44    19    20 ar  
    45    20    21 ar  
    46    21    22 ar  
    47    23    24 1   
    48    23    25 2   
@<TRIPOS>SUBSTRUCTURE
     1 IJT         1 TEMP              0 ****  ****    0 ROOT
