@<TRIPOS>MOLECULE
IJU
   18    18     1     0     0
SMALL
bcc


@<TRIPOS>ATOM
      1 C4         -12.3990    -5.6440     0.3850 ca         1 IJU      -0.194300
      2 C5         -11.8230    -4.8230    -0.5700 ca         1 IJU       0.011100
      3 C6         -12.6140    -4.0300    -1.3810 ca         1 IJU      -0.226300
      4 C7         -13.9860    -4.1030    -1.1850 ca         1 IJU       0.408200
      5 N1         -14.5620    -4.8800    -0.2810 nb         1 IJU      -0.669000
      6 C3         -13.7860    -5.6360     0.4890 ca         1 IJU       0.413600
      7 C1         -14.2290    -8.0730     3.1780 c3         1 IJU       0.125700
      8 O1         -13.6350    -7.3680     2.1160 os         1 IJU      -0.410600
      9 C2         -14.5120    -6.4690     1.5080 c3         1 IJU       0.080100
     10 BR1         -9.9510    -4.7850    -0.7610 br         1 IJU      -0.083100
     11 H1         -11.7990    -6.2680     1.0310 ha         1 IJU       0.174000
     12 H2         -12.2020    -3.3770    -2.1370 ha         1 IJU       0.157000
     13 H3         -14.6450    -3.4980    -1.7980 h4         1 IJU       0.023100
     14 H4         -13.4830    -8.7530     3.5860 h1         1 IJU       0.032367
     15 H5         -14.5620    -7.4010     3.9770 h1         1 IJU       0.032367
     16 H6         -15.0930    -8.6600     2.8480 h1         1 IJU       0.032367
     17 H7         -14.9660    -5.7900     2.2470 h1         1 IJU       0.046700
     18 H8         -15.3460    -6.9870     1.0130 h1         1 IJU       0.046700
@<TRIPOS>BOND
     1     1     2 ar  
     2     1     6 ar  
     3     1    11 1   
     4     2     3 ar  
     5     2    10 1   
     6     3     4 ar  
     7     3    12 1   
     8     4     5 ar  
     9     4    13 1   
    10     5     6 ar  
    11     6     9 1   
    12     7     8 1   
    13     7    14 1   
    14     7    15 1   
    15     7    16 1   
    16     8     9 1   
    17     9    17 1   
    18     9    18 1   
@<TRIPOS>SUBSTRUCTURE
     1 IJU         1 TEMP              0 ****  ****    0 ROOT
