@<TRIPOS>MOLECULE
IJU
   18    18     1     0     0
SMALL
No Charge or Current Charge


@<TRIPOS>ATOM
      1 C4         -12.3730    -5.2800     0.5960 ca         1 IJU      -0.111000
      2 C5         -11.7890    -4.5850    -0.4730 ca         1 IJU       0.011100
      3 C6         -12.6120    -4.1540    -1.5230 ca         1 IJU      -0.143000
      4 C7         -13.9870    -4.4320    -1.4650 ca         1 IJU       0.342900
      5 N1         -14.5600    -5.1020    -0.4360 nb         1 IJU      -0.669000
      6 C3         -13.7600    -5.5220     0.5790 ca         1 IJU       0.348300
      7 C1         -14.3630    -8.3390     3.0010 c3         1 IJU       0.148900
      8 O1         -13.8050    -7.5590     1.9290 os         1 IJU      -0.457000
      9 C2         -14.4320    -6.2710     1.7350 c3         1 IJU       0.103300
     10 Br1         -9.9090    -4.2340    -0.4980 br         1 IJU      -0.083100
     11 H1         -11.7680    -5.6310     1.4270 ha         1 IJU       0.156000
     12 H2         -12.2010    -3.6130    -2.3700 ha         1 IJU       0.139000
     13 H3         -14.6530    -4.1090    -2.2640 h4         1 IJU       0.023100
     14 H4         -13.8390    -9.2990     3.0870 h1         1 IJU       0.032367
     15 H5         -14.2690    -7.8110     3.9580 h1         1 IJU       0.032367
     16 H6         -15.4260    -8.5460     2.8200 h1         1 IJU       0.032367
     17 H7         -14.3440    -5.6610     2.6430 h1         1 IJU       0.046700
     18 H8         -15.5010    -6.3950     1.5190 h1         1 IJU       0.046700
@<TRIPOS>BOND
     1     1     2 ar  
     2     1     6 ar  
     3     1    11 1   
     4     2     3 ar  
     5     2    10 1   
     6     3     4 ar  
     7     3    12 1   
     8     4     5 ar  
     9     4    13 1   
    10     5     6 ar  
    11     6     9 1   
    12     7     8 1   
    13     7    14 1   
    14     7    15 1   
    15     7    16 1   
    16     8     9 1   
    17     9    17 1   
    18     9    18 1   
@<TRIPOS>SUBSTRUCTURE
     1 IJU         1 TEMP              0 ****  ****    0 ROOT
