@<TRIPOS>MOLECULE
IJV
   23    23     1     0     0
SMALL
bcc


@<TRIPOS>ATOM
      1 C4          25.2510   -51.9000    52.2890 ca         1 IJV       0.086600
      2 C5          25.7200   -53.2150    52.2110 ca         1 IJV       0.115100
      3 C6          27.0840   -53.4900    52.4020 ca         1 IJV       0.086600
      4 C7          23.3990   -50.4350    52.1350 c3         1 IJV       0.128200
      5 C8          28.7500   -55.1800    52.4540 c3         1 IJV       0.128200
      6 C1          27.9740   -52.4650    52.6670 ca         1 IJV      -0.155500
      7 C2          27.4970   -51.1580    52.7430 ca         1 IJV      -0.174600
      8 C3          26.1470   -50.8740    52.5570 ca         1 IJV      -0.155500
      9 C9          28.4060   -50.0440    53.0230 c          1 IJV       0.587500
     10 O1          23.9310   -51.7440    52.0880 os         1 IJV      -0.318900
     11 O2          24.8360   -54.1880    51.9510 oh         1 IJV      -0.470100
     12 O3          27.3980   -54.7960    52.3000 os         1 IJV      -0.318900
     13 O4          29.5980   -50.1500    53.2040 o          1 IJV      -0.522100
     14 H5          22.3350   -50.5280    51.9350 h1         1 IJV       0.043200
     15 H6          23.5340   -49.9750    53.1170 h1         1 IJV       0.043200
     16 H4          23.8450   -49.7860    51.3770 h1         1 IJV       0.043200
     17 H8          28.7820   -56.2590    52.3290 h1         1 IJV       0.043200
     18 H9          29.3900   -54.7160    51.6990 h1         1 IJV       0.043200
     19 H7          29.1310   -54.9260    53.4470 h1         1 IJV       0.043200
     20 H1          29.0280   -52.6580    52.8150 ha         1 IJV       0.149000
     21 H2          25.8120   -49.8460    52.6250 ha         1 IJV       0.149000
     22 H10         27.9150   -49.0550    53.0590 h4         1 IJV      -0.013800
     23 H3          25.2850   -55.0430    51.9190 ho         1 IJV       0.442000
@<TRIPOS>BOND
     1     1     2 ar  
     2     1     8 ar  
     3     1    10 1   
     4     2     3 ar  
     5     2    11 1   
     6     3     6 ar  
     7     3    12 1   
     8     4    10 1   
     9     4    14 1   
    10     4    15 1   
    11     4    16 1   
    12     5    12 1   
    13     5    17 1   
    14     5    18 1   
    15     5    19 1   
    16     6     7 ar  
    17     6    20 1   
    18     7     8 ar  
    19     7     9 1   
    20     8    21 1   
    21     9    13 2   
    22     9    22 1   
    23    11    23 1   
@<TRIPOS>SUBSTRUCTURE
     1 IJV         1 TEMP              0 ****  ****    0 ROOT
