@<TRIPOS>MOLECULE
IJV
   23    23     1     0     0
SMALL
No Charge or Current Charge


@<TRIPOS>ATOM
      1 C4          25.2120   -51.9120    52.2700 ca         1 IJV       0.086600
      2 C5          25.6830   -53.2430    52.1890 ca         1 IJV       0.115100
      3 C6          27.0510   -53.5280    52.3810 ca         1 IJV       0.086600
      4 C7          23.2920   -50.3480    52.1390 c3         1 IJV       0.151400
      5 C8          28.8300   -55.2480    52.4700 c3         1 IJV       0.151400
      6 C1          27.9540   -52.4770    52.6550 ca         1 IJV      -0.137500
      7 C2          27.4960   -51.1440    52.7380 ca         1 IJV      -0.174600
      8 C3          26.1260   -50.8680    52.5450 ca         1 IJV      -0.137500
      9 C9          28.4520   -50.0120    53.0310 c          1 IJV       0.587500
     10 O1          23.8600   -51.6690    52.0750 os         1 IJV      -0.342100
     11 O2          24.8220   -54.2790    51.9240 oh         1 IJV      -0.509100
     12 O3          27.4580   -54.8490    52.2910 os         1 IJV      -0.342100
     13 O4          29.6560   -50.1710    53.2110 o          1 IJV      -0.522100
     14 H5          22.2120   -50.3900    51.9550 h1         1 IJV       0.043200
     15 H6          23.4510   -49.9010    53.1290 h1         1 IJV       0.043200
     16 H4          23.7400   -49.6940    51.3800 h1         1 IJV       0.043200
     17 H8          28.9270   -56.3350    52.3570 h1         1 IJV       0.043200
     18 H9          29.4760   -54.7700    51.7240 h1         1 IJV       0.043200
     19 H7          29.1870   -54.9780    53.4720 h1         1 IJV       0.043200
     20 H1          29.0110   -52.6800    52.8060 ha         1 IJV       0.131000
     21 H2          25.7870   -49.8370    52.6110 ha         1 IJV       0.131000
     22 H10         28.0020   -48.9950    53.0770 h4         1 IJV      -0.013800
     23 H3          25.3620   -55.1000    51.9150 ho         1 IJV       0.481000
@<TRIPOS>BOND
     1     1     2 ar  
     2     1     8 ar  
     3     1    10 1   
     4     2     3 ar  
     5     2    11 1   
     6     3     6 ar  
     7     3    12 1   
     8     4    10 1   
     9     4    14 1   
    10     4    15 1   
    11     4    16 1   
    12     5    12 1   
    13     5    17 1   
    14     5    18 1   
    15     5    19 1   
    16     6     7 ar  
    17     6    20 1   
    18     7     8 ar  
    19     7     9 1   
    20     8    21 1   
    21     9    13 2   
    22     9    22 1   
    23    11    23 1   
@<TRIPOS>SUBSTRUCTURE
     1 IJV         1 TEMP              0 ****  ****    0 ROOT
