@<TRIPOS>MOLECULE
IJW
   58    62     1     0     0
SMALL
abcg2


@<TRIPOS>ATOM
      1 C11         30.9740   -49.9290   -10.5010 c5         1 IJW       0.170800
      2 C15         31.9190   -48.7650    -8.4490 ca         1 IJW      -0.072300
      3 C16         31.1620   -47.6450    -8.1160 ca         1 IJW      -0.094500
      4 C17         30.9140   -47.3320    -6.7860 ca         1 IJW      -0.114000
      5 C18         31.4180   -48.1360    -5.7710 ca         1 IJW      -0.109000
      6 C19         32.1760   -49.2530    -6.0950 ca         1 IJW      -0.114000
      7 C20         32.4260   -49.5610    -7.4260 ca         1 IJW      -0.094500
      8 C23         29.0750   -43.1970   -17.0380 cx         1 IJW      -0.193000
      9 C24         27.7000   -43.1600   -17.6450 cx         1 IJW      -0.106900
     10 C25         28.1250   -42.0700   -16.7250 cx         1 IJW      -0.106900
     11 C26         25.1570   -45.5870   -12.9900 c5         1 IJW       0.083700
     12 C27         24.9180   -44.4520   -11.9920 c5         1 IJW      -0.135400
     13 C28         24.3600   -43.3540   -12.8930 c5         1 IJW       0.149600
     14 N1          30.9780   -45.5580   -14.8750 nb         1 IJW      -0.739000
     15 C2          30.6810   -44.7000   -15.8360 ca         1 IJW       0.364900
     16 C3          29.3990   -44.1830   -15.9910 ca         1 IJW       0.300300
     17 N4          28.4500   -44.5860   -15.1570 nb         1 IJW      -0.640000
     18 C5          28.7170   -45.4390   -14.1870 ca         1 IJW       0.234500
     19 C6          30.0300   -45.9280   -14.0400 ca         1 IJW       0.586300
     20 O7          30.3210   -46.7710   -13.0580 os         1 IJW      -0.419300
     21 C9          31.6550   -48.2400   -11.8290 c2         1 IJW       0.586200
     22 N10         30.9820   -49.4280   -11.8630 nh         1 IJW      -0.764600
     23 C12         32.1510   -49.1440    -9.8870 c5         1 IJW       0.149800
     24 N13         32.3290   -47.9930   -10.7710 n2         1 IJW      -0.617900
     25 C14         29.8770   -49.7370   -12.7360 c3         1 IJW       0.210100
     26 O22         27.7270   -46.4560   -12.2590 o          1 IJW      -0.585100
     27 O29         23.7270   -44.0160   -13.9840 os         1 IJW      -0.465000
     28 C30         23.9440   -45.4130   -13.8900 c5         1 IJW       0.138600
     29 N31         26.3800   -45.4070   -13.7410 ns         1 IJW      -0.491900
     30 H1          30.0220   -49.6870   -10.0080 h1         1 IJW       0.054700
     31 H35         31.1120   -51.0100   -10.4610 h1         1 IJW       0.054700
     32 H39         30.7670   -47.0110    -8.9000 ha         1 IJW       0.117000
     33 H40         30.3260   -46.4560    -6.5420 ha         1 IJW       0.111000
     34 H41         31.2250   -47.8910    -4.7350 ha         1 IJW       0.110000
     35 H42         32.5780   -49.8830    -5.3110 ha         1 IJW       0.111000
     36 H43         33.0240   -50.4310    -7.6730 ha         1 IJW       0.117000
     37 H44         29.9030   -42.9610   -17.6960 hc         1 IJW       0.086700
     38 H45         27.6320   -42.9480   -18.7050 hc         1 IJW       0.078450
     39 H46         26.9770   -43.8780   -17.2790 hc         1 IJW       0.078450
     40 H48         27.6960   -42.0490   -15.7310 hc         1 IJW       0.078450
     41 H47         28.3550   -41.0970   -17.1400 hc         1 IJW       0.078450
     42 H49         25.1680   -46.5670   -12.5150 h1         1 IJW       0.090700
     43 H51         24.1800   -44.7660   -11.2510 hc         1 IJW       0.067700
     44 H50         25.8200   -44.1500   -11.4610 hc         1 IJW       0.067700
     45 H53         23.6390   -42.7180   -12.3730 h1         1 IJW       0.047200
     46 H52         25.1590   -42.7100   -13.2730 h1         1 IJW       0.047200
     47 H32         31.4830   -44.4110   -16.5060 h4         1 IJW       0.034100
     48 H33         31.9080   -47.8150   -13.9160 h1         1 IJW       0.076200
     49 H34         32.3750   -46.5100   -12.8140 h1         1 IJW       0.076200
     50 H2          33.0600   -49.7570    -9.9360 h1         1 IJW       0.072700
     51 H37         29.7420   -50.8180   -12.7650 h1         1 IJW       0.041033
     52 H36         28.9380   -49.2830   -12.4050 h1         1 IJW       0.041033
     53 H38         30.0820   -49.4100   -13.7530 h1         1 IJW       0.041033
     54 H55         24.0890   -45.8270   -14.8910 h1         1 IJW       0.054700
     55 H54         23.0820   -45.9170   -13.4380 h1         1 IJW       0.054700
     56 H56         26.3740   -44.8420   -14.5790 hn         1 IJW       0.345500
     57 C8          31.6420   -47.2980   -12.9900 c3         1 IJW       0.137300
     58 C21         27.5720   -45.8230   -13.2920 c          1 IJW       0.518600
@<TRIPOS>BOND
     1     1    22 1   
     2     1    23 1   
     3     1    30 1   
     4     1    31 1   
     5     2     3 ar  
     6     2     7 ar  
     7     2    23 1   
     8     3     4 ar  
     9     3    32 1   
    10     4     5 ar  
    11     4    33 1   
    12     5     6 ar  
    13     5    34 1   
    14     6     7 ar  
    15     6    35 1   
    16     7    36 1   
    17     8     9 1   
    18     8    10 1   
    19     8    16 1   
    20     8    37 1   
    21     9    10 1   
    22     9    38 1   
    23     9    39 1   
    24    10    40 1   
    25    10    41 1   
    26    11    12 1   
    27    11    28 1   
    28    11    29 1   
    29    11    42 1   
    30    12    13 1   
    31    12    43 1   
    32    12    44 1   
    33    13    27 1   
    34    13    45 1   
    35    13    46 1   
    36    14    15 ar  
    37    14    19 ar  
    38    15    16 ar  
    39    15    47 1   
    40    16    17 ar  
    41    17    18 ar  
    42    18    19 ar  
    43    18    58 1   
    44    19    20 1   
    45    20    57 1   
    46    21    22 1   
    47    21    24 2   
    48    21    57 1   
    49    22    25 1   
    50    23    24 1   
    51    23    50 1   
    52    25    51 1   
    53    25    52 1   
    54    25    53 1   
    55    26    58 2   
    56    27    28 1   
    57    28    54 1   
    58    28    55 1   
    59    29    56 1   
    60    29    58 1   
    61    48    57 1   
    62    49    57 1   
@<TRIPOS>SUBSTRUCTURE
     1 IJW         1 TEMP              0 ****  ****    0 ROOT
