@<TRIPOS>MOLECULE
IJW
   58    62     1     0     0
SMALL
No Charge or Current Charge


@<TRIPOS>ATOM
      1 C11         31.2280   -50.0490   -10.4890 c5         1 IJW       0.170800
      2 C15         31.7580   -48.7990    -8.4110 ca         1 IJW      -0.072300
      3 C16         30.6470   -47.9480    -8.2150 ca         1 IJW      -0.094500
      4 C17         30.1760   -47.6730    -6.9200 ca         1 IJW      -0.114000
      5 C18         30.8100   -48.2440    -5.8050 ca         1 IJW      -0.109000
      6 C19         31.9150   -49.0900    -5.9870 ca         1 IJW      -0.114000
      7 C20         32.3860   -49.3650    -7.2830 ca         1 IJW      -0.094500
      8 C23         28.9900   -43.2250   -17.3070 cx         1 IJW      -0.193000
      9 C24         27.6450   -43.2600   -18.0070 cx         1 IJW      -0.106900
     10 C25         28.0030   -42.0880   -17.1250 cx         1 IJW      -0.106900
     11 C26         25.2410   -45.4670   -12.6770 c5         1 IJW       0.083700
     12 C27         25.2400   -44.2680   -11.6790 c5         1 IJW      -0.135400
     13 C28         24.3190   -43.2060   -12.3630 c5         1 IJW       0.149600
     14 N1          31.0330   -45.5480   -15.0570 nb         1 IJW      -0.739000
     15 C2          30.6730   -44.6910   -16.0510 ca         1 IJW       0.364900
     16 C3          29.3520   -44.1770   -16.1890 ca         1 IJW       0.300300
     17 N4          28.3640   -44.5220   -15.3220 nb         1 IJW      -0.640000
     18 C5          28.7100   -45.3910   -14.3060 ca         1 IJW       0.234500
     19 C6          30.0490   -45.9000   -14.1800 ca         1 IJW       0.586300
     20 O7          30.3860   -46.7660   -13.1610 os         1 IJW      -0.419300
     21 C9          31.8100   -48.2310   -11.8120 c2         1 IJW       0.586200
     22 N10         31.2480   -49.4960   -11.8490 nh         1 IJW      -0.764600
     23 C12         32.2790   -49.1110    -9.8170 c5         1 IJW       0.149800
     24 N13         32.4040   -47.9200   -10.7130 n2         1 IJW      -0.617900
     25 C14         30.4170   -50.0280   -12.9470 c3         1 IJW       0.210100
     26 O22         27.7620   -46.5570   -12.3740 o          1 IJW      -0.585100
     27 O29         24.0040   -43.7420   -13.6650 os         1 IJW      -0.465000
     28 C30         23.9770   -45.1760   -13.5290 c5         1 IJW       0.138600
     29 N31         26.3770   -45.2080   -13.5790 ns         1 IJW      -0.491900
     30 H1          30.2310   -49.9410   -10.0400 h1         1 IJW       0.054700
     31 H35         31.5190   -51.1080   -10.4500 h1         1 IJW       0.054700
     32 H39         30.1480   -47.4990    -9.0710 ha         1 IJW       0.117000
     33 H40         29.3200   -47.0160    -6.7810 ha         1 IJW       0.111000
     34 H41         30.4460   -48.0310    -4.8020 ha         1 IJW       0.110000
     35 H42         32.4080   -49.5340    -5.1250 ha         1 IJW       0.111000
     36 H43         33.2430   -50.0230    -7.4110 ha         1 IJW       0.117000
     37 H44         29.8460   -43.0090   -17.9420 hc         1 IJW       0.086700
     38 H45         27.6280   -43.0980   -19.0820 hc         1 IJW       0.078450
     39 H46         26.8900   -43.9530   -17.6430 hc         1 IJW       0.078450
     40 H48         27.4870   -41.9980   -16.1710 hc         1 IJW       0.078450
     41 H47         28.2260   -41.1390   -17.6080 hc         1 IJW       0.078450
     42 H49         25.2420   -46.4610   -12.2060 h1         1 IJW       0.090700
     43 H51         24.8160   -44.5660   -10.7130 hc         1 IJW       0.067700
     44 H50         26.2430   -43.8770   -11.4690 hc         1 IJW       0.067700
     45 H53         23.3850   -43.0690   -11.8010 h1         1 IJW       0.047200
     46 H52         24.8070   -42.2290   -12.4740 h1         1 IJW       0.047200
     47 H32         31.4560   -44.4070   -16.7530 h4         1 IJW       0.034100
     48 H33         32.0210   -47.8580   -13.9220 h1         1 IJW       0.076200
     49 H34         32.4540   -46.4870   -12.8920 h1         1 IJW       0.076200
     50 H2          33.2540   -49.6150    -9.7590 h1         1 IJW       0.072700
     51 H37         30.1010   -51.0570   -12.7270 h1         1 IJW       0.041033
     52 H36         29.5180   -49.4130   -13.0810 h1         1 IJW       0.041033
     53 H38         30.9820   -50.0370   -13.8890 h1         1 IJW       0.041033
     54 H55         23.9940   -45.6570   -14.5160 h1         1 IJW       0.054700
     55 H54         23.0580   -45.4720   -13.0030 h1         1 IJW       0.054700
     56 H56         26.3390   -44.5740   -14.3730 hn         1 IJW       0.345500
     57 C8          31.7290   -47.3000   -13.0240 c3         1 IJW       0.137300
     58 C21         27.6100   -45.7910   -13.3200 c          1 IJW       0.518600
@<TRIPOS>BOND
     1     1    22 1   
     2     1    23 1   
     3     1    30 1   
     4     1    31 1   
     5     2     3 ar  
     6     2     7 ar  
     7     2    23 1   
     8     3     4 ar  
     9     3    32 1   
    10     4     5 ar  
    11     4    33 1   
    12     5     6 ar  
    13     5    34 1   
    14     6     7 ar  
    15     6    35 1   
    16     7    36 1   
    17     8     9 1   
    18     8    10 1   
    19     8    16 1   
    20     8    37 1   
    21     9    10 1   
    22     9    38 1   
    23     9    39 1   
    24    10    40 1   
    25    10    41 1   
    26    11    12 1   
    27    11    28 1   
    28    11    29 1   
    29    11    42 1   
    30    12    13 1   
    31    12    43 1   
    32    12    44 1   
    33    13    27 1   
    34    13    45 1   
    35    13    46 1   
    36    14    15 ar  
    37    14    19 ar  
    38    15    16 ar  
    39    15    47 1   
    40    16    17 ar  
    41    17    18 ar  
    42    18    19 ar  
    43    18    58 1   
    44    19    20 1   
    45    20    57 1   
    46    21    22 1   
    47    21    24 2   
    48    21    57 1   
    49    22    25 1   
    50    23    24 1   
    51    23    50 1   
    52    25    51 1   
    53    25    52 1   
    54    25    53 1   
    55    26    58 2   
    56    27    28 1   
    57    28    54 1   
    58    28    55 1   
    59    29    56 1   
    60    29    58 1   
    61    48    57 1   
    62    49    57 1   
@<TRIPOS>SUBSTRUCTURE
     1 IJW         1 TEMP              0 ****  ****    0 ROOT
