@<TRIPOS>MOLECULE
IJX
   19    19     1     0     0
SMALL
bcc


@<TRIPOS>ATOM
      1 C4         -13.5590    -5.8010     1.1310 ca         1 IJX      -0.172000
      2 C5         -13.6410    -6.6870     2.1960 ca         1 IJX      -0.073000
      3 C6         -12.5080    -7.3360     2.6560 ca         1 IJX      -0.048900
      4 C7         -11.2800    -7.1080     2.0540 ca         1 IJX      -0.073000
      5 C8         -11.1980    -6.2250     0.9930 ca         1 IJX      -0.172000
      6 C3         -12.3300    -5.5580     0.5140 ca         1 IJX       0.087600
      7 C1         -12.4550    -3.0190    -2.2730 c3         1 IJX      -0.182100
      8 C2         -13.0420    -3.8760    -1.1790 c          1 IJX       0.677100
      9 O1         -14.2180    -3.8110    -0.8720 o          1 IJX      -0.576100
     10 BR1        -12.6310    -8.5380     4.1070 br         1 IJX      -0.099100
     11 H1         -14.4570    -5.3120     0.7930 ha         1 IJX       0.150000
     12 H2         -14.6060    -6.8590     2.6560 ha         1 IJX       0.147500
     13 H3         -10.3840    -7.6060     2.3990 ha         1 IJX       0.147500
     14 H4         -10.2340    -6.0540     0.5300 ha         1 IJX       0.150000
     15 H5         -11.1960    -4.6500    -0.9100 hn         1 IJX       0.317500
     16 H6         -13.1560    -2.9550    -3.1020 hc         1 IJX       0.064700
     17 H7         -12.3070    -2.0070    -1.8900 hc         1 IJX       0.064700
     18 H8         -11.4980    -3.3770    -2.6490 hc         1 IJX       0.064700
     19 N1         -12.1420    -4.6910    -0.5630 ns         1 IJX      -0.475100
@<TRIPOS>BOND
     1     1     2 ar  
     2     1     6 ar  
     3     1    11 1   
     4     2     3 ar  
     5     2    12 1   
     6     3     4 ar  
     7     3    10 1   
     8     4     5 ar  
     9     4    13 1   
    10     5     6 ar  
    11     5    14 1   
    12     6    19 1   
    13     7     8 1   
    14     7    16 1   
    15     7    17 1   
    16     7    18 1   
    17     8     9 2   
    18     8    19 1   
    19    15    19 1   
@<TRIPOS>SUBSTRUCTURE
     1 IJX         1 TEMP              0 ****  ****    0 ROOT
