@<TRIPOS>MOLECULE
IJX
   19    19     1     0     0
SMALL
No Charge or Current Charge


@<TRIPOS>ATOM
      1 C4         -13.5880    -5.8520     1.1340 ca         1 IJX      -0.154000
      2 C5         -13.6610    -6.7670     2.2000 ca         1 IJX      -0.055000
      3 C6         -12.4920    -7.3710     2.6890 ca         1 IJX      -0.048900
      4 C7         -11.2490    -7.0640     2.1150 ca         1 IJX      -0.055000
      5 C8         -11.1780    -6.1490     1.0500 ca         1 IJX      -0.154000
      6 C3         -12.3420    -5.5340     0.5480 ca         1 IJX      -0.005000
      7 C1         -12.4630    -3.0030    -2.3440 c3         1 IJX      -0.182100
      8 C2         -13.0980    -3.8560    -1.2500 c          1 IJX       0.610100
      9 O1         -14.3070    -3.8420    -1.0530 o          1 IJX      -0.576100
     10 Br1        -12.5940    -8.6150     4.1390 br         1 IJX      -0.099100
     11 H1         -14.5110    -5.4040     0.7820 ha         1 IJX       0.132000
     12 H2         -14.6240    -7.0060     2.6460 ha         1 IJX       0.129500
     13 H3         -10.3420    -7.5320     2.4930 ha         1 IJX       0.129500
     14 H4         -10.2080    -5.9180     0.6120 ha         1 IJX       0.132000
     15 H5         -11.2290    -4.5060    -0.8330 hn         1 IJX       0.151000
     16 H6         -13.2000    -2.4090    -2.8980 hc         1 IJX       0.064700
     17 H7         -11.6860    -2.3720    -1.8990 hc         1 IJX       0.064700
     18 H8         -11.8830    -3.6510    -3.0100 hc         1 IJX       0.064700
     19 N1         -12.1880    -4.6200    -0.5310 ns         1 IJX      -0.149000
@<TRIPOS>BOND
     1     1     2 ar  
     2     1     6 ar  
     3     1    11 1   
     4     2     3 ar  
     5     2    12 1   
     6     3     4 ar  
     7     3    10 1   
     8     4     5 ar  
     9     4    13 1   
    10     5     6 ar  
    11     5    14 1   
    12     6    19 1   
    13     7     8 1   
    14     7    16 1   
    15     7    17 1   
    16     7    18 1   
    17     8     9 2   
    18     8    19 1   
    19    15    19 1   
@<TRIPOS>SUBSTRUCTURE
     1 IJX         1 TEMP              0 ****  ****    0 ROOT
