@<TRIPOS>MOLECULE
IJZ
   16    16     1     0     0
SMALL
No Charge or Current Charge


@<TRIPOS>ATOM
      1 O10        -52.9930    17.2650    16.5700 o          1 IJZ      -0.704500
      2 C9         -53.5080    18.3630    16.7470 c          1 IJZ       0.726200
      3 O11        -54.2280    18.5940    17.7110 o          1 IJZ      -0.704500
      4 C5         -53.2250    19.4420    15.7250 cc         1 IJZ      -0.078600
      5 C4         -53.7160    20.7410    15.7540 cd         1 IJZ      -0.047200
      6 N12        -54.5520    21.2560    16.7380 nv         1 IJZ      -0.918000
      7 C3         -53.3320    21.7020    14.6430 c          1 IJZ       0.567200
      8 O8         -53.7040    22.8670    14.5660 o          1 IJZ      -0.590000
      9 N2         -52.5100    21.1650    13.6930 ns         1 IJZ      -0.466500
     10 C1         -52.0110    19.9040    13.6300 c          1 IJZ       0.600000
     11 N6         -52.3930    19.0920    14.6550 ns         1 IJZ      -0.479600
     12 O7         -51.2830    19.5260    12.7340 o          1 IJZ      -0.621000
     13 H112       -54.8810    22.2230    16.7040 hn         1 IJZ       0.456500
     14 H212       -54.8500    20.6620    17.5160 hn         1 IJZ       0.456500
     15 HN2        -52.2400    21.7820    12.9440 hn         1 IJZ       0.318500
     16 HN6        -52.0190    18.1470    14.6090 hn         1 IJZ       0.485000
@<TRIPOS>BOND
     1     1     2 1   
     2     2     3 1   
     3     2     4 1   
     4     4     5 2   
     5     4    11 1   
     6     5     6 1   
     7     5     7 1   
     8     6    13 1   
     9     6    14 1   
    10     7     8 2   
    11     7     9 1   
    12     9    10 1   
    13     9    15 1   
    14    10    11 1   
    15    10    12 2   
    16    11    16 1   
@<TRIPOS>SUBSTRUCTURE
     1 IJZ         1 TEMP              0 ****  ****    0 ROOT
