@<TRIPOS>MOLECULE
IJZ
   16    16     1     0     0
SMALL
bcc


@<TRIPOS>ATOM
      1 O10        -52.9680    17.2980    16.4820 o          1 IJZ      -0.809800
      2 C9         -53.5050    18.3940    16.7230 c          1 IJZ       0.936800
      3 O11        -54.2530    18.6810    17.6770 o          1 IJZ      -0.809800
      4 C5         -53.2100    19.4960    15.7230 cc         1 IJZ      -0.078600
      5 C4         -53.6600    20.7740    15.7920 cd         1 IJZ      -0.047200
      6 N12        -54.3850    21.3270    16.8260 nv         1 IJZ      -0.807600
      7 C3         -53.3100    21.6900    14.7050 c          1 IJZ       0.709700
      8 O8         -53.6870    22.8490    14.6570 o          1 IJZ      -0.665500
      9 N2         -52.5240    21.1570    13.7120 ns         1 IJZ      -0.600500
     10 C1         -52.0280    19.8730    13.6360 c          1 IJZ       0.809500
     11 N6         -52.4090    19.0980    14.6690 ns         1 IJZ      -0.433100
     12 O7         -51.3190    19.5050    12.7140 o          1 IJZ      -0.696500
     13 H112       -55.0320    22.0440    16.5370 hn         1 IJZ       0.401300
     14 H212       -54.7960    20.6280    17.4280 hn         1 IJZ       0.401300
     15 HN2        -52.2650    21.7790    12.9570 hn         1 IJZ       0.318500
     16 HN6        -52.0950    18.1360    14.7030 hn         1 IJZ       0.371500
@<TRIPOS>BOND
     1     1     2 1   
     2     2     3 1   
     3     2     4 1   
     4     4     5 2   
     5     4    11 1   
     6     5     6 1   
     7     5     7 1   
     8     6    13 1   
     9     6    14 1   
    10     7     8 2   
    11     7     9 1   
    12     9    10 1   
    13     9    15 1   
    14    10    11 1   
    15    10    12 2   
    16    11    16 1   
@<TRIPOS>SUBSTRUCTURE
     1 IJZ         1 TEMP              0 ****  ****    0 ROOT
