@<TRIPOS>MOLECULE
IK0
   54    57     1     0     0
SMALL
bcc


@<TRIPOS>ATOM
      1 C11         30.4260   -43.7710   -15.2280 cc         1 IK0      -0.116300
      2 C15         31.7180   -43.1230   -14.9090 c3         1 IK0      -0.015900
      3 C16         30.0960   -46.3810   -11.2270 c3         1 IK0      -0.125700
      4 C17         30.6780   -47.7980   -11.3450 c3         1 IK0      -0.108700
      5 C18         31.1650   -48.3040   -10.0330 cc         1 IK0       0.446800
      6 C21         32.3460   -48.7640    -8.3630 cd         1 IK0       0.811900
      7 C25         33.3490   -49.4660    -6.2380 c5         1 IK0       0.243800
      8 C26         34.7520   -49.2360    -5.6850 c5         1 IK0      -0.096400
      9 C27         35.6290   -49.2870    -6.9330 c5         1 IK0      -0.096400
     10 C28         34.7780   -48.5960    -7.9950 c5         1 IK0       0.243800
     11 C1          27.8500   -45.9900   -14.2420 cc         1 IK0      -0.070600
     12 C2          28.3300   -46.3960   -13.0320 cd         1 IK0      -0.190300
     13 C3          29.5700   -45.8990   -12.5440 cd         1 IK0       0.373600
     14 N4          30.3000   -45.0470   -13.2030 nc         1 IK0      -0.451800
     15 C5          26.5360   -46.5150   -14.7430 c          1 IK0       0.680700
     16 O6          25.8720   -47.2790   -14.0560 o          1 IK0      -0.613100
     17 N7          26.1710   -46.0980   -15.9560 ns         1 IK0      -0.558900
     18 C8          24.9380   -46.5290   -16.5700 c3         1 IK0       0.096300
     19 C9          28.6440   -45.0700   -14.9610 cc         1 IK0      -0.057300
     20 N10         29.8240   -44.6580   -14.3790 na         1 IK0       0.189200
     21 C12         29.5700   -43.6880   -16.3050 cd         1 IK0       0.065400
     22 N13         28.4830   -44.4880   -16.1280 nd         1 IK0      -0.309600
     23 C14         29.7250   -42.8690   -17.5360 c3         1 IK0      -0.017900
     24 N19         30.3970   -48.8550    -9.0940 na         1 IK0      -0.031400
     25 N20         31.1390   -49.1640    -8.0050 nc         1 IK0      -0.615800
     26 N22         32.4120   -48.2280    -9.6050 nd         1 IK0      -0.751000
     27 N24         33.4230   -48.8750    -7.5580 nh         1 IK0      -0.801300
     28 H38         32.5070   -43.8580   -14.7410 hc         1 IK0       0.054367
     29 H37         32.0290   -42.4820   -15.7310 hc         1 IK0       0.054367
     30 H39         31.6490   -42.5060   -14.0110 hc         1 IK0       0.054367
     31 H40         30.8660   -45.6980   -10.8680 hc         1 IK0       0.073700
     32 H41         29.2830   -46.3730   -10.4960 hc         1 IK0       0.073700
     33 H43         29.9330   -48.4770   -11.7660 hc         1 IK0       0.071700
     34 H42         31.5210   -47.7870   -12.0360 hc         1 IK0       0.071700
     35 H45         28.8080   -50.1810    -8.8760 h1         1 IK0       0.056033
     36 H44         28.4760   -48.5200    -8.3490 h1         1 IK0       0.056033
     37 H46         28.5660   -48.9040   -10.0730 h1         1 IK0       0.056033
     38 H48         32.5750   -48.9890    -5.6300 h1         1 IK0       0.048450
     39 H47         33.1090   -50.5350    -6.2880 h1         1 IK0       0.048450
     40 H50         34.8140   -48.2500    -5.2190 hc         1 IK0       0.051700
     41 H49         35.0270   -49.9770    -4.9350 hc         1 IK0       0.051700
     42 H52         36.5960   -48.8030    -6.8000 hc         1 IK0       0.051700
     43 H51         35.8140   -50.3240    -7.2200 hc         1 IK0       0.051700
     44 H53         34.9670   -48.9880    -8.9970 h1         1 IK0       0.048450
     45 H54         34.9740   -47.5180    -8.0240 h1         1 IK0       0.048450
     46 H29         27.7700   -47.0960   -12.4260 ha         1 IK0       0.172000
     47 H30         26.7730   -45.4490   -16.4500 hn         1 IK0       0.362500
     48 H32         24.8610   -46.0620   -17.5480 h1         1 IK0       0.041367
     49 H33         24.9120   -47.6110   -16.7030 h1         1 IK0       0.041367
     50 H31         24.0690   -46.2380   -15.9790 h1         1 IK0       0.041367
     51 H35         29.7080   -43.4990   -18.4270 hc         1 IK0       0.049033
     52 H34         28.9100   -42.1500   -17.6330 hc         1 IK0       0.049033
     53 H36         30.6600   -42.3130   -17.5370 hc         1 IK0       0.049033
     54 C23         28.9840   -49.1290    -9.0960 c3         1 IK0       0.046600
@<TRIPOS>BOND
     1     1     2 1   
     2     1    20 1   
     3     1    21 2   
     4     2    28 1   
     5     2    29 1   
     6     2    30 1   
     7     3     4 1   
     8     3    13 1   
     9     3    31 1   
    10     3    32 1   
    11     4     5 1   
    12     4    33 1   
    13     4    34 1   
    14     5    24 1   
    15     5    26 2   
    16     6    25 2   
    17     6    26 1   
    18     6    27 1   
    19     7     8 1   
    20     7    27 1   
    21     7    38 1   
    22     7    39 1   
    23     8     9 1   
    24     8    40 1   
    25     8    41 1   
    26     9    10 1   
    27     9    42 1   
    28     9    43 1   
    29    10    27 1   
    30    10    44 1   
    31    10    45 1   
    32    11    12 2   
    33    11    15 1   
    34    11    19 1   
    35    12    13 1   
    36    12    46 1   
    37    13    14 2   
    38    14    20 1   
    39    15    16 2   
    40    15    17 1   
    41    17    18 1   
    42    17    47 1   
    43    18    48 1   
    44    18    49 1   
    45    18    50 1   
    46    19    20 1   
    47    19    22 2   
    48    21    22 1   
    49    21    23 1   
    50    23    51 1   
    51    23    52 1   
    52    23    53 1   
    53    24    25 1   
    54    24    54 1   
    55    35    54 1   
    56    36    54 1   
    57    37    54 1   
@<TRIPOS>SUBSTRUCTURE
     1 IK0         1 TEMP              0 ****  ****    0 ROOT
