@<TRIPOS>MOLECULE
IK0
   54    57     1     0     0
SMALL
No Charge or Current Charge


@<TRIPOS>ATOM
      1 C11         30.5130   -43.9260   -15.2350 cc         1 IK0      -0.116300
      2 C15         31.8940   -43.3720   -14.9850 c3         1 IK0      -0.015900
      3 C16         29.9710   -46.5280   -11.2280 c3         1 IK0      -0.125700
      4 C17         30.7100   -47.8820   -11.3600 c3         1 IK0      -0.108700
      5 C18         31.2130   -48.4200   -10.0450 cc         1 IK0       0.446800
      6 C21         32.3650   -48.8910    -8.3650 cd         1 IK0       0.811900
      7 C25         33.4650   -49.5730    -6.2110 c5         1 IK0       0.243800
      8 C26         34.7430   -48.9640    -5.5760 c5         1 IK0      -0.096400
      9 C27         35.6900   -48.8860    -6.8030 c5         1 IK0      -0.096400
     10 C28         34.7540   -48.2690    -7.8750 c5         1 IK0       0.243800
     11 C1          27.6900   -45.9360   -14.2350 cc         1 IK0      -0.070600
     12 C2          28.1540   -46.4030   -13.0200 cd         1 IK0      -0.107000
     13 C3          29.4620   -46.0090   -12.5500 cd         1 IK0       0.308300
     14 N4          30.3130   -45.2040   -13.1990 nc         1 IK0      -0.451800
     15 C5          26.3330   -46.3470   -14.7190 c          1 IK0       0.613700
     16 O6          25.5840   -47.0890   -14.0960 o          1 IK0      -0.613100
     17 N7          25.9640   -45.8300   -15.9370 ns         1 IK0      -0.491900
     18 C8          24.6900   -46.0910   -16.6080 c3         1 IK0       0.096300
     19 C9          28.5890   -45.0690   -14.9440 cc         1 IK0      -0.108000
     20 N10         29.8130   -44.7600   -14.4050 na         1 IK0       0.239900
     21 C12         29.6500   -43.7500   -16.2960 cd         1 IK0       0.065400
     22 N13         28.4690   -44.4560   -16.1110 nd         1 IK0      -0.309600
     23 C14         29.8780   -42.9210   -17.5320 c3         1 IK0      -0.017900
     24 N19         30.4850   -49.1860    -9.1510 na         1 IK0      -0.060700
     25 N20         31.2340   -49.4940    -8.0590 nc         1 IK0      -0.615800
     26 N22         32.4200   -48.2210    -9.5550 nd         1 IK0      -0.751000
     27 N24         33.4660   -48.9170    -7.5380 nh         1 IK0      -0.801300
     28 H38         32.6250   -44.1810   -14.8750 hc         1 IK0       0.054367
     29 H37         32.2230   -42.7310   -15.8110 hc         1 IK0       0.054367
     30 H39         31.9130   -42.7720   -14.0670 hc         1 IK0       0.054367
     31 H40         30.6460   -45.7960   -10.7660 hc         1 IK0       0.073700
     32 H41         29.1320   -46.6400   -10.5300 hc         1 IK0       0.073700
     33 H43         30.0450   -48.6180   -11.8270 hc         1 IK0       0.071700
     34 H42         31.5580   -47.7610   -12.0460 hc         1 IK0       0.071700
     35 H45         28.7970   -50.2160    -8.3900 h1         1 IK0       0.056033
     36 H44         28.4260   -48.7840    -9.3920 h1         1 IK0       0.056033
     37 H46         28.9990   -50.2930   -10.1640 h1         1 IK0       0.056033
     38 H48         32.5680   -49.3420    -5.6200 h1         1 IK0       0.048450
     39 H47         33.5450   -50.6640    -6.3120 h1         1 IK0       0.048450
     40 H50         34.5440   -47.9690    -5.1610 hc         1 IK0       0.051700
     41 H49         35.1430   -49.5850    -4.7670 hc         1 IK0       0.051700
     42 H52         36.5770   -48.2690    -6.6200 hc         1 IK0       0.051700
     43 H51         36.0360   -49.8810    -7.1050 hc         1 IK0       0.051700
     44 H53         35.0950   -48.5000    -8.8940 h1         1 IK0       0.048450
     45 H54         34.6840   -47.1770    -7.7700 h1         1 IK0       0.048450
     46 H29         27.5470   -47.0660   -12.4140 ha         1 IK0       0.154000
     47 H30         26.6470   -45.2250   -16.3830 hn         1 IK0       0.362500
     48 H32         24.6630   -45.5530   -17.5640 h1         1 IK0       0.041367
     49 H33         24.5840   -47.1680   -16.7950 h1         1 IK0       0.041367
     50 H31         23.8620   -45.7470   -15.9750 h1         1 IK0       0.041367
     51 H35         29.0180   -42.9630   -18.2100 hc         1 IK0       0.049033
     52 H34         30.0470   -41.8700   -17.2710 hc         1 IK0       0.049033
     53 H36         30.7560   -43.2760   -18.0830 hc         1 IK0       0.049033
     54 C23         29.0920   -49.6480    -9.2810 c3         1 IK0       0.075900
@<TRIPOS>BOND
     1     1     2 1   
     2     1    20 1   
     3     1    21 2   
     4     2    28 1   
     5     2    29 1   
     6     2    30 1   
     7     3     4 1   
     8     3    13 1   
     9     3    31 1   
    10     3    32 1   
    11     4     5 1   
    12     4    33 1   
    13     4    34 1   
    14     5    24 1   
    15     5    26 2   
    16     6    25 2   
    17     6    26 1   
    18     6    27 1   
    19     7     8 1   
    20     7    27 1   
    21     7    38 1   
    22     7    39 1   
    23     8     9 1   
    24     8    40 1   
    25     8    41 1   
    26     9    10 1   
    27     9    42 1   
    28     9    43 1   
    29    10    27 1   
    30    10    44 1   
    31    10    45 1   
    32    11    12 2   
    33    11    15 1   
    34    11    19 1   
    35    12    13 1   
    36    12    46 1   
    37    13    14 2   
    38    14    20 1   
    39    15    16 2   
    40    15    17 1   
    41    17    18 1   
    42    17    47 1   
    43    18    48 1   
    44    18    49 1   
    45    18    50 1   
    46    19    20 1   
    47    19    22 2   
    48    21    22 1   
    49    21    23 1   
    50    23    51 1   
    51    23    52 1   
    52    23    53 1   
    53    24    25 1   
    54    24    54 1   
    55    35    54 1   
    56    36    54 1   
    57    37    54 1   
@<TRIPOS>SUBSTRUCTURE
     1 IK0         1 TEMP              0 ****  ****    0 ROOT
