@<TRIPOS>MOLECULE
IK1
   29    30     1     0     0
SMALL
bcc


@<TRIPOS>ATOM
      1 NAA          4.4260     1.9580    -0.2080 nt         1 IK1      -0.678000
      2 NAB          1.4760    -3.6430     0.3170 nt         1 IK1      -0.660000
      3 OAC          2.2640     2.6470    -0.2620 o          1 IK1      -0.631100
      4 OAD          3.2000    -2.2090     0.1640 o          1 IK1      -0.668100
      5 CAG         -4.3780     1.4980     0.3850 ca         1 IK1      -0.124500
      6 CAF         -4.7390    -0.7230    -0.4430 ca         1 IK1      -0.124500
      7 CAI         -3.0100     1.2720     0.3990 ca         1 IK1      -0.123500
      8 CAH         -3.3710    -0.9470    -0.4430 ca         1 IK1      -0.123500
      9 CAJ         -0.4030    -1.4050     0.1020 cc         1 IK1      -0.089000
     10 NAK          2.7220     0.4390    -0.0680 ns         1 IK1      -0.466100
     11 SAL          0.0910     1.1020    -0.1220 ss         1 IK1       0.023200
     12 CAM          3.1000     1.7570    -0.1850 c          1 IK1       0.794100
     13 CAO         -5.2500     0.5010    -0.0320 ca         1 IK1      -0.129000
     14 CAP         -2.4830     0.0450    -0.0150 ca         1 IK1       0.003000
     15 CAQ         -1.0460    -0.2130     0.0000 cd         1 IK1      -0.069100
     16 CAR          1.0190    -1.2990     0.0890 cc         1 IK1      -0.288600
     17 CAS          1.4280     0.0180    -0.0270 cd         1 IK1       0.170500
     18 HAA1         4.7790     2.8970    -0.2810 hn         1 IK1       0.329500
     19 HAA2         5.0960     1.2150    -0.1120 hn         1 IK1       0.329500
     20 HAB1         2.0990    -4.4280     0.4100 hn         1 IK1       0.315500
     21 HAB2         0.4920    -3.8330     0.3670 hn         1 IK1       0.315500
     22 HAF         -5.4070    -1.5060    -0.7780 ha         1 IK1       0.130500
     23 HAH         -2.9900    -1.8960    -0.7960 ha         1 IK1       0.131500
     24 HAO         -6.3180     0.6780    -0.0380 ha         1 IK1       0.131000
     25 HAG         -4.7620     2.4550     0.7120 ha         1 IK1       0.130500
     26 HAI         -2.3530     2.0590     0.7510 ha         1 IK1       0.131500
     27 HAJ         -0.9430    -2.3370     0.2040 ha         1 IK1       0.141000
     28 HAK          3.3980    -0.3190    -0.0090 hn         1 IK1       0.370500
     29 CAN          1.9810    -2.4080     0.1930 c          1 IK1       0.724700
@<TRIPOS>BOND
     1     1    12 1   
     2     1    18 1   
     3     1    19 1   
     4     2    20 1   
     5     2    21 1   
     6     2    29 1   
     7     3    12 2   
     8     4    29 2   
     9     5     7 ar  
    10     5    13 ar  
    11     5    25 1   
    12     6     8 ar  
    13     6    13 ar  
    14     6    22 1   
    15     7    14 ar  
    16     7    26 1   
    17     8    14 ar  
    18     8    23 1   
    19     9    15 2   
    20     9    16 1   
    21     9    27 1   
    22    10    12 1   
    23    10    17 1   
    24    10    28 1   
    25    11    15 1   
    26    11    17 1   
    27    13    24 1   
    28    14    15 1   
    29    16    17 2   
    30    16    29 1   
@<TRIPOS>SUBSTRUCTURE
     1 IK1         1 TEMP              0 ****  ****    0 ROOT
