@<TRIPOS>MOLECULE
IK1
   29    30     1     0     0
SMALL
No Charge or Current Charge


@<TRIPOS>ATOM
      1 NAA          4.6450     1.7840     0.0280 nt         1 IK1      -0.611000
      2 NAB          1.4420    -3.5520    -0.0290 nt         1 IK1      -0.593000
      3 OAC          2.6710     2.8160     0.0410 o          1 IK1      -0.631100
      4 OAD          3.2020    -2.2100    -0.0150 o          1 IK1      -0.668100
      5 CAG         -4.5290     1.5090     0.0320 ca         1 IK1      -0.106500
      6 CAF         -4.8210    -0.8990     0.0060 ca         1 IK1      -0.106500
      7 CAI         -3.1330     1.3400     0.0290 ca         1 IK1      -0.105500
      8 CAH         -3.4250    -1.0690     0.0030 ca         1 IK1      -0.105500
      9 CAJ         -0.3890    -1.3160    -0.0030 cc         1 IK1      -0.071000
     10 NAK          2.7600     0.5200     0.0150 ns         1 IK1      -0.399100
     11 SAL          0.0330     1.2550     0.0260 ss         1 IK1       0.313000
     12 CAM          3.3040     1.7780     0.0290 c          1 IK1       0.660100
     13 CAO         -5.3740     0.3890     0.0210 ca         1 IK1      -0.111000
     14 CAP         -2.5580     0.0480     0.0140 ca         1 IK1       0.003000
     15 CAQ         -1.0860    -0.1290     0.0110 cd         1 IK1      -0.214000
     16 CAR          1.0340    -1.1770    -0.0020 cc         1 IK1      -0.288600
     17 CAS          1.4240     0.1440     0.0120 cd         1 IK1       0.025600
     18 HAA1         5.1250     2.6710     0.0370 hn         1 IK1       0.329500
     19 HAA2         5.1700     0.9230     0.0180 hn         1 IK1       0.329500
     20 HAB1         2.0500    -4.3560    -0.0380 hn         1 IK1       0.315500
     21 HAB2         0.4410    -3.6610    -0.0290 hn         1 IK1       0.315500
     22 HAF         -5.4730    -1.7700    -0.0030 ha         1 IK1       0.112500
     23 HAH         -3.0310    -2.0800    -0.0090 ha         1 IK1       0.113500
     24 HAO         -6.4540     0.5200     0.0230 ha         1 IK1       0.113000
     25 HAG         -4.9550     2.5100     0.0440 ha         1 IK1       0.112500
     26 HAI         -2.5100     2.2300     0.0380 ha         1 IK1       0.113500
     27 HAJ         -0.8700    -2.2880    -0.0130 ha         1 IK1       0.123000
     28 HAK          3.4410    -0.2320     0.0060 hn         1 IK1       0.370500
     29 CAN          1.9860    -2.3220    -0.0160 c          1 IK1       0.657700
@<TRIPOS>BOND
     1     1    12 1   
     2     1    18 1   
     3     1    19 1   
     4     2    20 1   
     5     2    21 1   
     6     2    29 1   
     7     3    12 2   
     8     4    29 2   
     9     5     7 ar  
    10     5    13 ar  
    11     5    25 1   
    12     6     8 ar  
    13     6    13 ar  
    14     6    22 1   
    15     7    14 ar  
    16     7    26 1   
    17     8    14 ar  
    18     8    23 1   
    19     9    15 2   
    20     9    16 1   
    21     9    27 1   
    22    10    12 1   
    23    10    17 1   
    24    10    28 1   
    25    11    15 1   
    26    11    17 1   
    27    13    24 1   
    28    14    15 1   
    29    16    17 2   
    30    16    29 1   
@<TRIPOS>SUBSTRUCTURE
     1 IK1         1 TEMP              0 ****  ****    0 ROOT
