@<TRIPOS>MOLECULE
IK4
   51    53     1     0     0
SMALL
No Charge or Current Charge


@<TRIPOS>ATOM
      1 N31        -10.4380    -0.6900     3.1400 n1         1 IK4      -0.482000
      2 C30         -9.5590    -0.4510     2.4090 cg         1 IK4       0.339000
      3 C27         -8.4860    -0.1550     1.4990 ca         1 IK4      -0.029000
      4 C28         -8.0930     1.1800     1.2770 ca         1 IK4      -0.079500
      5 C29         -7.0420     1.4690     0.3880 ca         1 IK4      -0.090000
      6 C26         -7.8190    -1.1970     0.8260 ca         1 IK4      -0.079500
      7 C25         -6.7690    -0.9060    -0.0630 ca         1 IK4      -0.090000
      8 C24         -6.3760     0.4280    -0.2880 ca         1 IK4      -0.055300
      9 C23         -5.2380     0.7420    -1.2500 c3         1 IK4       0.210900
     10 C19         -2.6670     1.2750    -2.4950 ca         1 IK4      -0.177000
     11 C20         -2.7870     0.9960    -1.1160 ca         1 IK4       0.106100
     12 C21         -1.6380     0.9720    -0.3090 ca         1 IK4      -0.107000
     13 C18         -1.4010     1.5260    -3.0530 ca         1 IK4      -0.067000
     14 C16         -0.2510     1.5020    -2.2430 ca         1 IK4      -0.019000
     15 C15         -0.3690     1.2240    -0.8640 ca         1 IK4      -0.015000
     16 C14          0.7810     1.2000    -0.0520 ca         1 IK4       0.003000
     17 C17          1.0160     1.7530    -2.8010 ca         1 IK4      -0.118000
     18 C12          2.1650     1.7290    -1.9910 ca         1 IK4      -0.017000
     19 C13          2.0500     1.4540    -0.6130 ca         1 IK4      -0.266500
     20 S11          3.5120     1.4130     0.4320 sy         1 IK4       1.148600
     21 O33          4.6430     2.0150    -0.2790 o          1 IK4      -0.573000
     22 O32          3.1360     1.7860     1.8000 o          1 IK4      -0.573000
     23 N            3.7850    -0.2340     0.4600 n7         1 IK4      -0.833300
     24 CA           5.1520    -0.7290     0.8260 c3         1 IK4       0.083500
     25 C            5.6330    -0.3320     2.2840 c          1 IK4       0.733000
     26 O            5.1830    -0.9420     3.2490 o          1 IK4      -0.728000
     27 OXT          6.4950     0.5320     2.3960 o          1 IK4      -0.728000
     28 CB           5.2090    -2.2650     0.6040 c3         1 IK4      -0.071400
     29 CG           5.0460    -2.7090    -0.8770 c3         1 IK4      -0.207400
     30 CD           5.2650    -4.2310    -0.9990 c          1 IK4       0.715000
     31 OE1          6.4030    -4.6370    -1.1770 o          1 IK4      -0.755000
     32 OE2          4.3000    -4.9670    -0.8610 o          1 IK4      -0.755000
     33 O22         -4.0020     0.7420    -0.5140 os         1 IK4      -0.349100
     34 H28         -8.5990     1.9940     1.7930 ha         1 IK4       0.121500
     35 H26         -8.1120    -2.2320     0.9900 ha         1 IK4       0.121500
     36 H29         -6.7450     2.5030     0.2260 ha         1 IK4       0.129500
     37 H25         -6.2580    -1.7180    -0.5760 ha         1 IK4       0.129500
     38 H231        -5.2140    -0.0130    -2.0460 h1         1 IK4       0.040200
     39 H232        -5.4120     1.7220    -1.7140 h1         1 IK4       0.040200
     40 H18         -1.3160     1.7400    -4.1170 ha         1 IK4       0.103000
     41 H21         -1.7370     0.7570     0.7520 ha         1 IK4       0.125000
     42 H17          1.1140     1.9670    -3.8630 ha         1 IK4       0.101000
     43 H14          0.6860     0.9810     1.0100 ha         1 IK4       0.128000
     44 H12          3.1370     1.9260    -2.4410 ha         1 IK4       0.142000
     45 H            3.5690    -0.4940    -0.4990 hn         1 IK4       0.488000
     46 HA           5.8880    -0.2870     0.1390 h1         1 IK4       0.034700
     47 HB1C         6.1790    -2.6260     0.9700 hc         1 IK4       0.060200
     48 HB2C         4.4440    -2.7530     1.2210 hc         1 IK4       0.060200
     49 HG1C         4.0210    -2.4480    -1.1680 hc         1 IK4       0.003200
     50 HG2C         5.8160    -2.1660    -1.4380 hc         1 IK4       0.003200
     51 H19         -3.5350     1.3010    -3.1460 ha         1 IK4       0.096000
@<TRIPOS>BOND
     1     1     2 3   
     2     2     3 1   
     3     3     4 ar  
     4     3     6 ar  
     5     4     5 ar  
     6     4    34 1   
     7     5     8 ar  
     8     5    36 1   
     9     6     7 ar  
    10     6    35 1   
    11     7     8 ar  
    12     7    37 1   
    13     8     9 1   
    14     9    33 1   
    15     9    38 1   
    16     9    39 1   
    17    10    11 ar  
    18    10    13 ar  
    19    10    51 1   
    20    11    12 ar  
    21    11    33 1   
    22    12    15 ar  
    23    12    41 1   
    24    13    14 ar  
    25    13    40 1   
    26    14    15 ar  
    27    14    17 ar  
    28    15    16 ar  
    29    16    19 ar  
    30    16    43 1   
    31    17    18 ar  
    32    17    42 1   
    33    18    19 ar  
    34    18    44 1   
    35    19    20 1   
    36    20    21 2   
    37    20    22 2   
    38    20    23 1   
    39    23    24 1   
    40    23    45 1   
    41    24    25 1   
    42    24    28 1   
    43    24    46 1   
    44    25    26 1   
    45    25    27 1   
    46    28    29 1   
    47    28    47 1   
    48    28    48 1   
    49    29    30 1   
    50    29    49 1   
    51    29    50 1   
    52    30    31 1   
    53    30    32 1   
@<TRIPOS>SUBSTRUCTURE
     1 IK4         1 TEMP              0 ****  ****    0 ROOT
