@<TRIPOS>MOLECULE
IK4
   51    53     1     0     0
SMALL
bcc


@<TRIPOS>ATOM
      1 N31        -10.0300    -1.3690     2.4290 n1         1 IK4      -0.392800
      2 C30         -9.1230    -1.0670     1.7860 cg         1 IK4       0.249800
      3 C27         -7.9980    -0.6930     0.9920 ca         1 IK4      -0.029000
      4 C28         -7.8570     0.6290     0.5730 ca         1 IK4      -0.097500
      5 C29         -6.7630     0.9830    -0.1990 ca         1 IK4      -0.108000
      6 C26         -7.0500    -1.6540     0.6380 ca         1 IK4      -0.097500
      7 C25         -5.9650    -1.2840    -0.1340 ca         1 IK4      -0.108000
      8 C24         -5.8130     0.0340    -0.5600 ca         1 IK4      -0.055300
      9 C23         -4.6130     0.4240    -1.3700 c3         1 IK4       0.187700
     10 C19         -2.0310     1.0590    -2.3070 ca         1 IK4      -0.195000
     11 C20         -2.3000     0.8270    -0.9370 ca         1 IK4       0.106100
     12 C21         -1.2840     0.9160    -0.0150 ca         1 IK4      -0.125000
     13 C18         -0.7630     1.3700    -2.7150 ca         1 IK4      -0.085000
     14 C16          0.3000     1.4690    -1.7940 ca         1 IK4      -0.019000
     15 C15          0.0250     1.2350    -0.4210 ca         1 IK4      -0.015000
     16 C14          1.0830     1.3310     0.5110 ca         1 IK4      -0.015000
     17 C17          1.6140     1.8030    -2.1920 ca         1 IK4      -0.136000
     18 C12          2.6240     1.8980    -1.2770 ca         1 IK4      -0.035000
     19 C13          2.3430     1.6470     0.0840 ca         1 IK4      -0.266500
     20 S11          3.6720     1.6510     1.2630 sy         1 IK4       1.290200
     21 O33          4.7480     2.4440     0.6880 o          1 IK4      -0.643800
     22 O32          3.1190     2.0110     2.5610 o          1 IK4      -0.643800
     23 N            4.2040     0.1240     1.3900 n7         1 IK4      -0.778100
     24 CA           4.9220    -0.5340     0.3000 c3         1 IK4       0.083500
     25 C            6.4330    -0.6770     0.5980 c          1 IK4       0.943600
     26 O            6.8000    -0.6250     1.7830 o          1 IK4      -0.833300
     27 OXT          7.1440    -0.8790    -0.4080 o          1 IK4      -0.833300
     28 CB           4.3110    -1.9060     0.0100 c3         1 IK4      -0.071400
     29 CG           2.8570    -1.8560    -0.4340 c3         1 IK4      -0.207400
     30 CD           2.2620    -3.2050    -0.8780 c          1 IK4       0.925600
     31 OE1          3.0330    -4.1830    -0.9620 o          1 IK4      -0.860300
     32 OE2          1.0400    -3.2070    -1.1310 o          1 IK4      -0.860300
     33 O22         -3.5230     0.5150    -0.4650 os         1 IK4      -0.325900
     34 H28         -8.5940     1.3710     0.8490 ha         1 IK4       0.139500
     35 H26         -7.1670    -2.6780     0.9640 ha         1 IK4       0.139500
     36 H29         -6.6520     2.0100    -0.5240 ha         1 IK4       0.147500
     37 H25         -5.2340    -2.0320    -0.4140 ha         1 IK4       0.147500
     38 H231        -4.4170    -0.3290    -2.1400 h1         1 IK4       0.040200
     39 H232        -4.7860     1.3830    -1.8690 h1         1 IK4       0.040200
     40 H18         -0.5700     1.5450    -3.7660 ha         1 IK4       0.121000
     41 H21         -1.4900     0.7390     1.0340 ha         1 IK4       0.143000
     42 H17          1.8160     1.9920    -3.2390 ha         1 IK4       0.119000
     43 H14          0.8780     1.1430     1.5580 ha         1 IK4       0.146000
     44 H12          3.6200     2.1740    -1.5930 ha         1 IK4       0.160000
     45 H            3.6470    -0.4590     2.0010 hn         1 IK4       0.432800
     46 HA           4.8150     0.0670    -0.6080 h1         1 IK4       0.034700
     47 HB1C         4.9170    -2.3720    -0.7670 hc         1 IK4       0.060200
     48 HB2C         4.4140    -2.5400     0.8980 hc         1 IK4       0.060200
     49 HG1C         2.2190    -1.4530     0.3570 hc         1 IK4       0.003200
     50 HG2C         2.7470    -1.1440    -1.2610 hc         1 IK4       0.003200
     51 H19         -2.8160     0.9980    -3.0470 ha         1 IK4       0.114000
@<TRIPOS>BOND
     1     1     2 3   
     2     2     3 1   
     3     3     4 ar  
     4     3     6 ar  
     5     4     5 ar  
     6     4    34 1   
     7     5     8 ar  
     8     5    36 1   
     9     6     7 ar  
    10     6    35 1   
    11     7     8 ar  
    12     7    37 1   
    13     8     9 1   
    14     9    33 1   
    15     9    38 1   
    16     9    39 1   
    17    10    11 ar  
    18    10    13 ar  
    19    10    51 1   
    20    11    12 ar  
    21    11    33 1   
    22    12    15 ar  
    23    12    41 1   
    24    13    14 ar  
    25    13    40 1   
    26    14    15 ar  
    27    14    17 ar  
    28    15    16 ar  
    29    16    19 ar  
    30    16    43 1   
    31    17    18 ar  
    32    17    42 1   
    33    18    19 ar  
    34    18    44 1   
    35    19    20 1   
    36    20    21 2   
    37    20    22 2   
    38    20    23 1   
    39    23    24 1   
    40    23    45 1   
    41    24    25 1   
    42    24    28 1   
    43    24    46 1   
    44    25    26 1   
    45    25    27 1   
    46    28    29 1   
    47    28    47 1   
    48    28    48 1   
    49    29    30 1   
    50    29    49 1   
    51    29    50 1   
    52    30    31 1   
    53    30    32 1   
@<TRIPOS>SUBSTRUCTURE
     1 IK4         1 TEMP              0 ****  ****    0 ROOT
