@<TRIPOS>MOLECULE
IK7
   46    51     1     0     0
SMALL
No Charge or Current Charge


@<TRIPOS>ATOM
      1 N1         -17.8610   -12.8810   -10.0350 na         1 IK7      -0.302600
      2 N3         -29.3460    -5.4690    -6.6860 nb         1 IK7      -0.655000
      3 C5         -18.8120   -11.9320   -10.2470 ca         1 IK7      -0.076200
      4 C6         -18.7950   -10.8070   -11.0760 ca         1 IK7      -0.116000
      5 C7         -19.9470    -9.9930   -11.0890 ca         1 IK7      -0.080000
      6 C8         -21.0860   -10.3050   -10.2860 cp         1 IK7      -0.054000
      7 C10        -22.7240    -8.7880   -11.5110 ca         1 IK7      -0.080000
      8 C13        -25.9930    -7.2680    -8.7290 cc         1 IK7       0.457400
      9 C15        -28.0520    -5.8060    -8.7100 ca         1 IK7      -0.141000
     10 C17        -28.4760    -6.2750    -6.0370 ca         1 IK7       0.333650
     11 C20        -23.0760    -9.2290    -9.1270 ca         1 IK7      -0.036000
     12 C21        -21.0340   -11.4680    -9.4630 ca         1 IK7      -0.036000
     13 C22        -19.8790   -12.2620    -9.4670 ca         1 IK7       0.069400
     14 C24        -17.5480   -16.9680    -7.2220 ca         1 IK7       0.333650
     15 C23        -18.2600   -15.8460    -7.6790 ca         1 IK7      -0.141000
     16 C2         -16.3580   -15.2900    -9.0420 ca         1 IK7      -0.141000
     17 C1         -15.7190   -16.4340    -8.5330 ca         1 IK7       0.333650
     18 C19        -24.2110    -8.4070    -9.1810 ca         1 IK7       0.069400
     19 C16        -29.1290    -5.2440    -8.0020 ca         1 IK7       0.333650
     20 C12        -24.5790    -7.8070   -10.3470 ca         1 IK7      -0.076200
     21 C14        -27.1380    -6.6510    -8.0400 ca         1 IK7      -0.068900
     22 C18        -27.3740    -6.8780    -6.6670 ca         1 IK7      -0.141000
     23 C9         -22.3040    -9.4340   -10.3070 cp         1 IK7      -0.054000
     24 C11        -23.8690    -7.9660   -11.5400 ca         1 IK7      -0.116000
     25 C3         -17.6670   -14.9710    -8.6140 ca         1 IK7      -0.068900
     26 C4         -18.3860   -13.7860    -9.1120 cc         1 IK7       0.457400
     27 N2         -25.7010    -7.0860   -10.0810 na         1 IK7      -0.302600
     28 N4         -25.0850    -8.0810    -8.1480 nd         1 IK7      -0.562100
     29 N5         -19.6350   -13.4270    -8.7440 nd         1 IK7      -0.562100
     30 N6         -16.2960   -17.2660    -7.6370 nb         1 IK7      -0.655000
     31 H1         -16.9460   -12.9310   -10.4600 hn         1 IK7       0.359000
     32 H2         -17.9280   -10.5650   -11.6860 ha         1 IK7       0.119000
     33 H3         -19.9510    -9.1050   -11.7160 ha         1 IK7       0.116000
     34 H4         -22.1640    -8.9370   -12.4300 ha         1 IK7       0.116000
     35 H6         -28.6680    -6.4440    -4.9780 h4         1 IK7       0.022850
     36 H7         -22.7910    -9.6870    -8.1840 ha         1 IK7       0.135000
     37 H8         -21.8790   -11.7550    -8.8450 ha         1 IK7       0.135000
     38 H9         -17.9950   -17.6510    -6.5000 h4         1 IK7       0.022850
     39 H10        -19.2630   -15.6680    -7.3020 ha         1 IK7       0.132250
     40 H11        -15.8270   -14.6720    -9.7600 ha         1 IK7       0.132250
     41 H12        -14.7100   -16.6930    -8.8540 h4         1 IK7       0.022850
     42 H13        -29.8410    -4.5910    -8.5050 h4         1 IK7       0.022850
     43 H14        -26.7160    -7.5160    -6.0830 ha         1 IK7       0.132250
     44 H15        -24.1880    -7.4780   -12.4590 ha         1 IK7       0.119000
     45 H16        -26.2300    -6.5230   -10.7310 hn         1 IK7       0.359000
     46 H5         -27.9470    -5.5770    -9.7660 ha         1 IK7       0.132250
@<TRIPOS>BOND
     1     1     3 1   
     2     1    26 1   
     3     1    31 1   
     4     2    10 ar  
     5     2    19 ar  
     6     3     4 ar  
     7     3    13 ar  
     8     4     5 ar  
     9     4    32 1   
    10     5     6 ar  
    11     5    33 1   
    12     6    12 ar  
    13     6    23 1   
    14     7    23 ar  
    15     7    24 ar  
    16     7    34 1   
    17     8    21 1   
    18     8    27 1   
    19     8    28 2   
    20     9    19 ar  
    21     9    21 ar  
    22     9    46 1   
    23    10    22 ar  
    24    10    35 1   
    25    11    18 ar  
    26    11    23 ar  
    27    11    36 1   
    28    12    13 ar  
    29    12    37 1   
    30    13    29 1   
    31    14    15 ar  
    32    14    30 ar  
    33    14    38 1   
    34    15    25 ar  
    35    15    39 1   
    36    16    17 ar  
    37    16    25 ar  
    38    16    40 1   
    39    17    30 ar  
    40    17    41 1   
    41    18    20 ar  
    42    18    28 1   
    43    19    42 1   
    44    20    24 ar  
    45    20    27 1   
    46    21    22 ar  
    47    22    43 1   
    48    24    44 1   
    49    25    26 1   
    50    26    29 2   
    51    27    45 1   
@<TRIPOS>SUBSTRUCTURE
     1 IK7         1 TEMP              0 ****  ****    0 ROOT
