@<TRIPOS>MOLECULE
IK7
   46    51     1     0     0
SMALL
bcc


@<TRIPOS>ATOM
      1 N1         -17.8610   -12.8190    -9.9970 na         1 IK7      -0.252300
      2 N3         -29.2160    -5.5400    -6.6910 nb         1 IK7      -0.655000
      3 C5         -18.7890   -11.8400   -10.2130 ca         1 IK7      -0.076200
      4 C6         -18.8020   -10.7020   -11.0110 ca         1 IK7      -0.134000
      5 C7         -19.9530    -9.9400   -10.9880 ca         1 IK7      -0.098000
      6 C8         -21.0750   -10.2810   -10.1990 cp         1 IK7      -0.054000
      7 C10        -22.7440    -8.9100   -11.4610 ca         1 IK7      -0.098000
      8 C13        -25.9330    -7.2930    -8.7620 cc         1 IK7       0.457400
      9 C15        -28.0670    -5.9760    -8.7440 ca         1 IK7      -0.224300
     10 C17        -28.2600    -6.2100    -6.0560 ca         1 IK7       0.398950
     11 C20        -22.9940    -9.1700    -9.0660 ca         1 IK7      -0.054000
     12 C21        -21.0370   -11.4180    -9.4050 ca         1 IK7      -0.054000
     13 C22        -19.8840   -12.2010    -9.4120 ca         1 IK7       0.069400
     14 C24        -17.7550   -16.9680    -7.4360 ca         1 IK7       0.398950
     15 C23        -18.4120   -15.8300    -7.8680 ca         1 IK7      -0.224300
     16 C2         -16.3870   -15.1860    -8.9450 ca         1 IK7      -0.224300
     17 C1         -15.8250   -16.3570    -8.4590 ca         1 IK7       0.398950
     18 C19        -24.1500    -8.3950    -9.1450 ca         1 IK7       0.069400
     19 C16        -29.1090    -5.4330    -8.0090 ca         1 IK7       0.398950
     20 C12        -24.5790    -7.8930   -10.3840 ca         1 IK7      -0.076200
     21 C14        -27.0680    -6.6780    -8.0760 ca         1 IK7      -0.068900
     22 C18        -27.1770    -6.7930    -6.6910 ca         1 IK7      -0.224300
     23 C9         -22.2870    -9.4340   -10.2300 cp         1 IK7      -0.054000
     24 C11        -23.8840    -8.1390   -11.5620 ca         1 IK7      -0.134000
     25 C3         -17.7180   -14.9070    -8.6490 ca         1 IK7      -0.068900
     26 C4         -18.4040   -13.7050    -9.1180 cc         1 IK7       0.457400
     27 N2         -25.7200    -7.1970   -10.1030 na         1 IK7      -0.252300
     28 N4         -25.0120    -7.9990    -8.1590 nd         1 IK7      -0.562100
     29 N5         -19.6110   -13.3650    -8.7460 nd         1 IK7      -0.562100
     30 N6         -16.4850   -17.2390    -7.7200 nb         1 IK7      -0.655000
     31 H1         -16.9600   -12.8820   -10.4450 hn         1 IK7       0.308700
     32 H2         -17.9550   -10.4170   -11.6210 ha         1 IK7       0.137000
     33 H3         -19.9870    -9.0370   -11.5850 ha         1 IK7       0.134000
     34 H4         -22.1940    -9.1400   -12.3650 ha         1 IK7       0.134000
     35 H6         -28.3580    -6.2910    -4.9790 h4         1 IK7       0.022850
     36 H7         -22.6520    -9.5430    -8.1080 ha         1 IK7       0.153000
     37 H8         -21.8910   -11.7130    -8.8080 ha         1 IK7       0.153000
     38 H9         -18.2830   -17.6970    -6.8320 h4         1 IK7       0.022850
     39 H10        -19.4480   -15.6660    -7.6060 ha         1 IK7       0.150250
     40 H11        -15.7710   -14.5210    -9.5370 ha         1 IK7       0.150250
     41 H12        -14.7900   -16.5860    -8.6830 h4         1 IK7       0.022850
     42 H13        -29.8940    -4.8850    -8.5190 h4         1 IK7       0.022850
     43 H14        -26.4330    -7.3260    -6.1180 ha         1 IK7       0.150250
     44 H15        -24.2190    -7.7560   -12.5170 ha         1 IK7       0.137000
     45 H16        -26.2850    -6.7010   -10.7760 hn         1 IK7       0.308700
     46 H5         -28.0630    -5.8420    -9.8180 ha         1 IK7       0.150250
@<TRIPOS>BOND
     1     1     3 1   
     2     1    26 1   
     3     1    31 1   
     4     2    10 ar  
     5     2    19 ar  
     6     3     4 ar  
     7     3    13 ar  
     8     4     5 ar  
     9     4    32 1   
    10     5     6 ar  
    11     5    33 1   
    12     6    12 ar  
    13     6    23 1   
    14     7    23 ar  
    15     7    24 ar  
    16     7    34 1   
    17     8    21 1   
    18     8    27 1   
    19     8    28 2   
    20     9    19 ar  
    21     9    21 ar  
    22     9    46 1   
    23    10    22 ar  
    24    10    35 1   
    25    11    18 ar  
    26    11    23 ar  
    27    11    36 1   
    28    12    13 ar  
    29    12    37 1   
    30    13    29 1   
    31    14    15 ar  
    32    14    30 ar  
    33    14    38 1   
    34    15    25 ar  
    35    15    39 1   
    36    16    17 ar  
    37    16    25 ar  
    38    16    40 1   
    39    17    30 ar  
    40    17    41 1   
    41    18    20 ar  
    42    18    28 1   
    43    19    42 1   
    44    20    24 ar  
    45    20    27 1   
    46    21    22 ar  
    47    22    43 1   
    48    24    44 1   
    49    25    26 1   
    50    26    29 2   
    51    27    45 1   
@<TRIPOS>SUBSTRUCTURE
     1 IK7         1 TEMP              0 ****  ****    0 ROOT
