@<TRIPOS>MOLECULE
IK8
   58    62     1     0     0
SMALL
No Charge or Current Charge


@<TRIPOS>ATOM
      1 F            5.3220    -2.2240     2.8070 f          1 IK8      -0.104000
      2 F1           5.7940    -3.0320     0.8420 f          1 IK8      -0.104000
      3 F2           4.0460    -3.7420     1.9200 f          1 IK8      -0.104000
      4 OT1          3.9240     5.5180    -1.5770 os         1 IK8      -0.104100
      5 O1           0.6040     1.0450    -0.9060 o          1 IK8      -0.546100
      6 N            3.2040     6.2010    -0.4880 nc         1 IK8      -0.368700
      7 N2           3.3860     0.2680     0.1020 na         1 IK8       0.278000
      8 N3           4.4700    -0.3880     0.6310 nc         1 IK8      -0.437800
      9 N4          -0.1250    -1.0160    -0.1710 ns         1 IK8      -0.137000
     10 C            3.8740     4.1790    -1.2890 ca         1 IK8       0.114100
     11 C1           3.1990     3.9460    -0.1340 ca         1 IK8      -0.266900
     12 C2           2.8010     5.2350     0.3270 cd         1 IK8       0.595800
     13 C3           4.4260     3.1360    -2.0410 ca         1 IK8      -0.113000
     14 C4           4.2560     1.8170    -1.5630 ca         1 IK8      -0.031000
     15 C5           3.5440     1.5720    -0.3600 ca         1 IK8      -0.041200
     16 C6           3.0040     2.6540     0.3770 ca         1 IK8      -0.013000
     17 C7           3.9360    -1.5460     0.9900 cd         1 IK8       0.124300
     18 C8           2.5470    -1.6100     0.6980 cd         1 IK8      -0.140000
     19 C9           2.1810    -0.4200     0.1140 cc         1 IK8      -0.221600
     20 C10          4.7740    -2.6370     1.6400 c3         1 IK8       0.296700
     21 C13          0.8350    -0.0330    -0.3750 c          1 IK8       0.640700
     22 C14         -1.5170    -1.0860    -0.4720 ca         1 IK8      -0.072000
     23 C15         -2.2120    -2.2610    -0.1190 ca         1 IK8       0.134000
     24 C16         -3.5830    -2.4000    -0.3830 ca         1 IK8      -0.120000
     25 C17         -4.2910    -1.3570    -1.0040 ca         1 IK8       0.033800
     26 C18         -3.6070    -0.1820    -1.3690 ca         1 IK8      -0.094000
     27 C19         -2.2320    -0.0430    -1.1060 ca         1 IK8      -0.082000
     28 N5          -5.6540    -1.4960    -1.2630 na         1 IK8      -0.074300
     29 C21         -6.1970    -2.5310    -1.9790 cc         1 IK8      -0.220000
     30 C22         -7.5500    -2.3030    -1.9080 cd         1 IK8       0.234900
     31 N6          -7.8300    -1.1790    -1.1430 nd         1 IK8      -0.673000
     32 C25         -6.6540    -0.7020    -0.7400 cc         1 IK8       0.415800
     33 F3          -1.5550    -3.2770     0.4860 f          1 IK8      -0.181000
     34 C11         -6.4560     0.5020     0.1770 c3         1 IK8       0.140500
     35 N7          -5.7210     0.2480     1.4570 n3         1 IK8      -0.737600
     36 C20         -5.4120     1.4940     2.1930 c3         1 IK8       0.155600
     37 C23         -6.3720    -0.7710     2.3130 c3         1 IK8       0.155600
     38 HN11         2.1310     6.5200     1.7330 hn         1 IK8       0.477000
     39 HN12         2.0720     4.8560     2.1840 hn         1 IK8       0.477000
     40 HN4          0.2310    -1.8470     0.2800 hn         1 IK8       0.173000
     41 H3           4.9660     3.3370    -2.9620 ha         1 IK8       0.149000
     42 H4           4.6750     0.9840    -2.1250 ha         1 IK8       0.143000
     43 H6           2.4570     2.4870     1.3020 ha         1 IK8       0.129000
     44 H8           1.9070    -2.4630     0.9050 ha         1 IK8       0.165000
     45 H16         -4.0940    -3.3150    -0.0960 ha         1 IK8       0.147000
     46 H18         -4.1380     0.6260    -1.8660 ha         1 IK8       0.135000
     47 H19         -1.7470     0.8810    -1.4040 ha         1 IK8       0.147000
     48 H21         -5.6200    -3.3050    -2.4690 h4         1 IK8       0.160000
     49 H22         -8.3410    -2.8920    -2.3570 h4         1 IK8       0.040100
     50 H111        -5.9270     1.2680    -0.4060 h1         1 IK8       0.057200
     51 H112        -7.4470     0.9190     0.4000 h1         1 IK8       0.057200
     52 H201        -6.3340     1.9930     2.5230 h1         1 IK8       0.034367
     53 H202        -4.8010     1.2800     3.0800 h1         1 IK8       0.034367
     54 H203        -4.8510     2.1910     1.5570 h1         1 IK8       0.034367
     55 H231        -6.4820    -1.7230     1.7770 h1         1 IK8       0.034367
     56 H232        -5.7710    -0.9630     3.2120 h1         1 IK8       0.034367
     57 H233        -7.3690    -0.4370     2.6310 h1         1 IK8       0.034367
     58 N1           2.1150     5.5480     1.4450 nv         1 IK8      -0.995200
@<TRIPOS>BOND
     1     1    20 1   
     2     2    20 1   
     3     3    20 1   
     4     4     6 1   
     5     4    10 1   
     6     5    21 2   
     7     6    12 2   
     8     7     8 1   
     9     7    15 1   
    10     7    19 1   
    11     8    17 2   
    12     9    21 1   
    13     9    22 1   
    14     9    40 1   
    15    10    11 ar  
    16    10    13 ar  
    17    11    12 1   
    18    11    16 ar  
    19    12    58 1   
    20    13    14 ar  
    21    13    41 1   
    22    14    15 ar  
    23    14    42 1   
    24    15    16 ar  
    25    16    43 1   
    26    17    18 1   
    27    17    20 1   
    28    18    19 2   
    29    18    44 1   
    30    19    21 1   
    31    22    23 ar  
    32    22    27 ar  
    33    23    24 ar  
    34    23    33 1   
    35    24    25 ar  
    36    24    45 1   
    37    25    26 ar  
    38    25    28 1   
    39    26    27 ar  
    40    26    46 1   
    41    27    47 1   
    42    28    29 1   
    43    28    32 1   
    44    29    30 2   
    45    29    48 1   
    46    30    31 1   
    47    30    49 1   
    48    31    32 2   
    49    32    34 1   
    50    34    35 1   
    51    34    50 1   
    52    34    51 1   
    53    35    36 1   
    54    35    37 1   
    55    36    52 1   
    56    36    53 1   
    57    36    54 1   
    58    37    55 1   
    59    37    56 1   
    60    37    57 1   
    61    38    58 1   
    62    39    58 1   
@<TRIPOS>SUBSTRUCTURE
     1 IK8         1 TEMP              0 ****  ****    0 ROOT
