@<TRIPOS>MOLECULE
IK8
   58    62     1     0     0
SMALL
bcc


@<TRIPOS>ATOM
      1 F            6.7130    -1.7040     0.1970 f          1 IK8      -0.225300
      2 F1           5.9080    -3.1350    -1.2020 f          1 IK8      -0.225300
      3 F2           5.5320    -3.3670     0.8990 f          1 IK8      -0.225300
      4 OT1          1.7620     5.2930     0.4020 os         1 IK8      -0.005600
      5 O1           0.5970     0.1330    -1.6290 o          1 IK8      -0.546100
      6 N            0.6750     5.1770     1.2630 nc         1 IK8      -0.467200
      7 N2           3.1950     0.0620    -0.2550 na         1 IK8       0.227300
      8 N3           4.4380    -0.3380    -0.0560 nc         1 IK8      -0.437800
      9 N4           0.1050    -1.6850    -0.3400 ns         1 IK8      -0.463100
     10 C            2.2450     4.0740     0.1540 ca         1 IK8       0.114100
     11 C1           1.4970     3.1230     0.8290 ca         1 IK8      -0.266900
     12 C2           0.5070     3.9110     1.5150 cd         1 IK8       0.595800
     13 C3           3.3270     3.7400    -0.6510 ca         1 IK8      -0.131000
     14 C4           3.6140     2.3950    -0.7660 ca         1 IK8      -0.049000
     15 C5           2.8570     1.4290    -0.0870 ca         1 IK8      -0.041200
     16 C6           1.8010     1.7720     0.7320 ca         1 IK8      -0.031000
     17 C7           4.4120    -1.6450    -0.2090 cd         1 IK8       0.189600
     18 C8           3.1230    -2.1150    -0.4940 cd         1 IK8      -0.223300
     19 C9           2.3600    -0.9740    -0.5230 cc         1 IK8      -0.170900
     20 C10          5.6500    -2.4570    -0.0760 c3         1 IK8       0.660600
     21 C13          0.9380    -0.7720    -0.8970 c          1 IK8       0.707700
     22 C14         -1.2910    -1.6480    -0.4170 ca         1 IK8       0.020600
     23 C15         -2.0240    -2.0530     0.6950 ca         1 IK8       0.098900
     24 C16         -3.3980    -2.0110     0.7380 ca         1 IK8      -0.138000
     25 C17         -4.0770    -1.5390    -0.3740 ca         1 IK8       0.033800
     26 C18         -3.3830    -1.1760    -1.5160 ca         1 IK8      -0.112000
     27 C19         -1.9990    -1.2260    -1.5380 ca         1 IK8      -0.100000
     28 N5          -5.4860    -1.4400    -0.3340 na         1 IK8      -0.125000
     29 C21         -6.3650    -2.4860    -0.1960 cc         1 IK8      -0.252600
     30 C22         -7.6030    -1.9200    -0.1980 cd         1 IK8       0.300200
     31 N6          -7.5010    -0.5610    -0.3190 nd         1 IK8      -0.673000
     32 C25         -6.2240    -0.2970    -0.3990 cc         1 IK8       0.415800
     33 F3          -1.3530    -2.4840     1.7740 f          1 IK8      -0.145900
     34 C11         -5.6140     1.0610    -0.5230 c3         1 IK8       0.140500
     35 N7          -4.5830     1.2760     0.4660 n3         1 IK8      -0.737600
     36 C20         -3.7350     2.3970     0.1360 c3         1 IK8       0.155600
     37 C23         -5.1110     1.3570     1.8060 c3         1 IK8       0.155600
     38 HN11        -1.0120     4.0970     2.8340 hn         1 IK8       0.421800
     39 HN12        -0.3680     2.5460     2.7200 hn         1 IK8       0.421800
     40 HN4          0.5070    -2.3170     0.3370 hn         1 IK8       0.339500
     41 H3           3.9100     4.4840    -1.1750 ha         1 IK8       0.167000
     42 H4           4.4350     2.0770    -1.3940 ha         1 IK8       0.161000
     43 H6           1.2460     1.0240     1.2840 ha         1 IK8       0.147000
     44 H8           2.8050    -3.1260    -0.6890 ha         1 IK8       0.183000
     45 H16         -3.9220    -2.3040     1.6390 ha         1 IK8       0.165000
     46 H18         -3.9170    -0.8490    -2.3980 ha         1 IK8       0.153000
     47 H19         -1.4790    -0.9420    -2.4380 ha         1 IK8       0.165000
     48 H21         -6.0310    -3.5080    -0.1260 h4         1 IK8       0.178000
     49 H22         -8.5570    -2.4160    -0.1170 h4         1 IK8       0.040100
     50 H111        -5.1690     1.1750    -1.5160 h1         1 IK8       0.057200
     51 H112        -6.4350     1.7930    -0.4680 h1         1 IK8       0.057200
     52 H201        -4.2640     3.3630     0.1220 h1         1 IK8       0.034367
     53 H202        -2.9190     2.4740     0.8560 h1         1 IK8       0.034367
     54 H203        -3.2900     2.2460    -0.8480 h1         1 IK8       0.034367
     55 H231        -5.6490     0.4420     2.0630 h1         1 IK8       0.034367
     56 H232        -4.2920     1.4620     2.5190 h1         1 IK8       0.034367
     57 H233        -5.8020     2.2020     1.9550 h1         1 IK8       0.034367
     58 N1          -0.5140     3.4320     2.2640 nv         1 IK8      -0.884800
@<TRIPOS>BOND
     1     1    20 1   
     2     2    20 1   
     3     3    20 1   
     4     4     6 1   
     5     4    10 1   
     6     5    21 2   
     7     6    12 2   
     8     7     8 1   
     9     7    15 1   
    10     7    19 1   
    11     8    17 2   
    12     9    21 1   
    13     9    22 1   
    14     9    40 1   
    15    10    11 ar  
    16    10    13 ar  
    17    11    12 1   
    18    11    16 ar  
    19    12    58 1   
    20    13    14 ar  
    21    13    41 1   
    22    14    15 ar  
    23    14    42 1   
    24    15    16 ar  
    25    16    43 1   
    26    17    18 1   
    27    17    20 1   
    28    18    19 2   
    29    18    44 1   
    30    19    21 1   
    31    22    23 ar  
    32    22    27 ar  
    33    23    24 ar  
    34    23    33 1   
    35    24    25 ar  
    36    24    45 1   
    37    25    26 ar  
    38    25    28 1   
    39    26    27 ar  
    40    26    46 1   
    41    27    47 1   
    42    28    29 1   
    43    28    32 1   
    44    29    30 2   
    45    29    48 1   
    46    30    31 1   
    47    30    49 1   
    48    31    32 2   
    49    32    34 1   
    50    34    35 1   
    51    34    50 1   
    52    34    51 1   
    53    35    36 1   
    54    35    37 1   
    55    36    52 1   
    56    36    53 1   
    57    36    54 1   
    58    37    55 1   
    59    37    56 1   
    60    37    57 1   
    61    38    58 1   
    62    39    58 1   
@<TRIPOS>SUBSTRUCTURE
     1 IK8         1 TEMP              0 ****  ****    0 ROOT
