@<TRIPOS>MOLECULE
IK9
   46    50     1     0     0
SMALL
abcg2


@<TRIPOS>ATOM
      1 F1          -1.2630    -4.5130     0.0400 f          1 IK9      -0.173000
      2 C2          -1.4210    -3.1840     0.0450 ca         1 IK9       0.269000
      3 C4          -0.2930    -2.3970     0.0050 ca         1 IK9      -0.217000
      4 C5          -0.4760    -1.0150    -0.0020 ca         1 IK9       0.381000
      5 C24         -1.7820    -0.4740     0.0420 ca         1 IK9      -0.228000
      6 C25         -2.9320    -1.3190     0.0930 ca         1 IK9       0.442000
      7 N26         -4.1620    -0.7850     0.1690 nu         1 IK9      -0.946200
      8 C27         -5.3790    -1.5590     0.1560 c3         1 IK9       0.220800
      9 C28         -6.5560    -0.6910     0.5400 c3         1 IK9       0.147600
     10 O29         -6.6610     0.3670    -0.3870 oh         1 IK9      -0.659000
     11 C3          -2.7170    -2.7020     0.0840 ca         1 IK9      -0.292000
     12 C23         -1.8740     0.9390     0.0210 cc         1 IK9       0.120000
     13 N22         -2.9110     1.7300    -0.0180 nd         1 IK9      -0.530300
     14 C20         -2.4240     3.0210    -0.0450 cd         1 IK9       0.653800
     15 N21         -3.0400     4.1290    -0.0310 n2         1 IK9      -0.804100
     16 N19         -1.0120     2.9700    -0.1180 na         1 IK9      -0.304800
     17 N18         -0.7000     1.6330     0.0180 na         1 IK9      -0.214500
     18 C7           0.5250     1.0570    -0.0830 cc         1 IK9       0.606800
     19 N6           0.6440    -0.2230    -0.0710 nd         1 IK9      -0.709000
     20 C8           1.6990     1.9810    -0.1890 c3         1 IK9      -0.082400
     21 C9           3.0060     1.2630    -0.3500 ca         1 IK9      -0.075300
     22 C17          3.5260     1.0320    -1.6140 ca         1 IK9      -0.090000
     23 C16          4.7460     0.3700    -1.8020 ca         1 IK9      -0.095000
     24 C15          5.4070    -0.0400    -0.6730 ca         1 IK9       0.060100
     25 C11          4.8930     0.1860     0.5950 ca         1 IK9       0.052100
     26 C10          3.6990     0.8310     0.7910 ca         1 IK9      -0.077000
     27 O14          6.5850    -0.7050    -0.5670 os         1 IK9      -0.343100
     28 C13          6.9180    -0.6920     0.8140 c5         1 IK9       0.372600
     29 O12          5.7370    -0.3340     1.5200 os         1 IK9      -0.343100
     30 H4           0.7010    -2.8210    -0.0280 ha         1 IK9       0.155000
     31 H3          -3.5400    -3.4020     0.0990 ha         1 IK9       0.136000
     32 H26         -4.2420     0.2180     0.0400 hn         1 IK9       0.545000
     33 H271        -5.5510    -2.0170    -0.8270 h1         1 IK9       0.052200
     34 H272        -5.3160    -2.3740     0.8810 h1         1 IK9       0.052200
     35 H281        -7.4550    -1.3190     0.5500 h1         1 IK9       0.032700
     36 H282        -6.4090    -0.3180     1.5600 h1         1 IK9       0.032700
     37 H29         -7.2130     1.0540    -0.0050 ho         1 IK9       0.450000
     38 H21         -4.0380     3.9630     0.0260 hn         1 IK9       0.409400
     39 H19         -0.5130     3.5770     0.5230 hn         1 IK9       0.320000
     40 H81C         1.5240     2.6590    -1.0310 hc         1 IK9       0.076200
     41 H82C         1.7220     2.6160     0.7030 hc         1 IK9       0.076200
     42 H17          2.9810     1.3750    -2.4850 ha         1 IK9       0.121000
     43 H10          3.3080     1.0060     1.7850 ha         1 IK9       0.132000
     44 H16          5.1430     0.1970    -2.7930 ha         1 IK9       0.136000
     45 H131         7.2470    -1.6820     1.1240 h2         1 IK9       0.065200
     46 H132         7.7010     0.0510     1.0000 h2         1 IK9       0.065200
@<TRIPOS>BOND
     1     1     2 1   
     2     2     3 ar  
     3     2    11 ar  
     4     3     4 ar  
     5     3    30 1   
     6     4     5 ar  
     7     4    19 1   
     8     5     6 ar  
     9     5    12 1   
    10     6     7 1   
    11     6    11 ar  
    12     7     8 1   
    13     7    32 1   
    14     8     9 1   
    15     8    33 1   
    16     8    34 1   
    17     9    10 1   
    18     9    35 1   
    19     9    36 1   
    20    10    37 1   
    21    11    31 1   
    22    12    13 2   
    23    12    17 1   
    24    13    14 1   
    25    14    15 2   
    26    14    16 1   
    27    15    38 1   
    28    16    17 1   
    29    16    39 1   
    30    17    18 1   
    31    18    19 2   
    32    18    20 1   
    33    20    21 1   
    34    20    40 1   
    35    20    41 1   
    36    21    22 ar  
    37    21    26 ar  
    38    22    23 ar  
    39    22    42 1   
    40    23    24 ar  
    41    23    44 1   
    42    24    25 ar  
    43    24    27 1   
    44    25    26 ar  
    45    25    29 1   
    46    26    43 1   
    47    27    28 1   
    48    28    29 1   
    49    28    45 1   
    50    28    46 1   
@<TRIPOS>SUBSTRUCTURE
     1 IK9         1 TEMP              0 ****  ****    0 ROOT
