@<TRIPOS>MOLECULE
IK9
   46    50     1     0     0
SMALL
No Charge or Current Charge


@<TRIPOS>ATOM
      1 F1          -1.1910    -4.6340     0.3290 f          1 IK9      -0.173000
      2 C2          -1.3920    -3.2990     0.3310 ca         1 IK9       0.269000
      3 C4          -0.3010    -2.4330     0.2520 ca         1 IK9      -0.217000
      4 C5          -0.4950    -1.0480     0.2580 ca         1 IK9       0.381000
      5 C24         -1.7950    -0.5390     0.3490 ca         1 IK9      -0.228000
      6 C25         -2.8980    -1.4130     0.3950 ca         1 IK9       0.442000
      7 N26         -4.1860    -0.9080     0.4640 nu         1 IK9      -0.946200
      8 C27         -5.4030    -1.5250    -0.0980 c3         1 IK9       0.220800
      9 C28         -6.6420    -0.6030     0.0790 c3         1 IK9       0.147600
     10 O29         -6.3910     0.7180    -0.4420 oh         1 IK9      -0.659000
     11 C3          -2.6910    -2.7950     0.4000 ca         1 IK9      -0.292000
     12 C23         -1.8840     0.8930     0.3470 cc         1 IK9       0.120000
     13 N22         -2.9350     1.6660     0.0990 nd         1 IK9      -0.530300
     14 C20         -2.3860     2.9130     0.0830 cd         1 IK9       0.653800
     15 N21         -3.0870     3.9690    -0.0430 n2         1 IK9      -0.804100
     16 N19         -1.0430     2.9610     0.2760 na         1 IK9      -0.304800
     17 N18         -0.7520     1.6380     0.5680 na         1 IK9      -0.214500
     18 C7           0.4840     1.0970     0.1430 cc         1 IK9       0.606800
     19 N6           0.6510    -0.2440     0.1210 nd         1 IK9      -0.709000
     20 C8           1.6680     2.0130    -0.1050 c3         1 IK9      -0.082400
     21 C9           3.0050     1.3130    -0.3580 ca         1 IK9      -0.075300
     22 C17          3.4000     0.9880    -1.6810 ca         1 IK9      -0.090000
     23 C16          4.6320     0.3440    -1.9240 ca         1 IK9      -0.095000
     24 C15          5.4420     0.0360    -0.8250 ca         1 IK9       0.060100
     25 C11          5.0660     0.3460     0.4520 ca         1 IK9       0.052100
     26 C10          3.8530     0.9890     0.7270 ca         1 IK9      -0.077000
     27 O14          6.6540    -0.5720    -0.8760 os         1 IK9      -0.343100
     28 C13          7.0140    -0.6970     0.5470 c5         1 IK9       0.372600
     29 O12          5.9940    -0.0260     1.3700 os         1 IK9      -0.343100
     30 H4           0.7030    -2.8370     0.1790 ha         1 IK9       0.155000
     31 H3          -3.5270    -3.4840     0.4590 ha         1 IK9       0.136000
     32 H26         -4.1760     0.1180     0.3890 hn         1 IK9       0.545000
     33 H271        -5.2610    -1.7230    -1.1690 h1         1 IK9       0.052200
     34 H272        -5.6090    -2.4860     0.3940 h1         1 IK9       0.052200
     35 H281        -7.4990    -1.0600    -0.4330 h1         1 IK9       0.032700
     36 H282        -6.8880    -0.5450     1.1480 h1         1 IK9       0.032700
     37 H29         -7.2150     1.2390    -0.3130 ho         1 IK9       0.450000
     38 H21         -4.0670     3.6760    -0.1510 hn         1 IK9       0.409400
     39 H19         -0.5410     3.7050     0.7390 hn         1 IK9       0.320000
     40 H81C         1.4330     2.6580    -0.9590 hc         1 IK9       0.076200
     41 H82C         1.7730     2.6870     0.7530 hc         1 IK9       0.076200
     42 H17          2.7520     1.2340    -2.5200 ha         1 IK9       0.121000
     43 H10          3.5760     1.2260     1.7510 ha         1 IK9       0.132000
     44 H16          4.9460     0.0920    -2.9340 ha         1 IK9       0.136000
     45 H131         7.0500    -1.7590     0.8150 h2         1 IK9       0.065200
     46 H132         7.9920    -0.2320     0.7210 h2         1 IK9       0.065200
@<TRIPOS>BOND
     1     1     2 1   
     2     2     3 ar  
     3     2    11 ar  
     4     3     4 ar  
     5     3    30 1   
     6     4     5 ar  
     7     4    19 1   
     8     5     6 ar  
     9     5    12 1   
    10     6     7 1   
    11     6    11 ar  
    12     7     8 1   
    13     7    32 1   
    14     8     9 1   
    15     8    33 1   
    16     8    34 1   
    17     9    10 1   
    18     9    35 1   
    19     9    36 1   
    20    10    37 1   
    21    11    31 1   
    22    12    13 2   
    23    12    17 1   
    24    13    14 1   
    25    14    15 2   
    26    14    16 1   
    27    15    38 1   
    28    16    17 1   
    29    16    39 1   
    30    17    18 1   
    31    18    19 2   
    32    18    20 1   
    33    20    21 1   
    34    20    40 1   
    35    20    41 1   
    36    21    22 ar  
    37    21    26 ar  
    38    22    23 ar  
    39    22    42 1   
    40    23    24 ar  
    41    23    44 1   
    42    24    25 ar  
    43    24    27 1   
    44    25    26 ar  
    45    25    29 1   
    46    26    43 1   
    47    27    28 1   
    48    28    29 1   
    49    28    45 1   
    50    28    46 1   
@<TRIPOS>SUBSTRUCTURE
     1 IK9         1 TEMP              0 ****  ****    0 ROOT
