@<TRIPOS>MOLECULE
IKB
   49    52     1     0     0
SMALL
No Charge or Current Charge


@<TRIPOS>ATOM
      1 C05         94.2640   -11.7220    10.5090 cc         1 IKB       0.450800
      2 C07         94.9680   -14.0130     6.5950 c6         1 IKB       0.230300
      3 C10         92.2570   -14.7040     6.2590 c6         1 IKB      -0.085900
      4 C11         92.6930   -14.3260     7.6960 c6         1 IKB       0.230300
      5 C13         92.5720    -9.2500    12.9880 cc         1 IKB       0.524300
      6 C17         91.3370    -8.8880    14.6380 cd         1 IKB      -0.120000
      7 C18         90.3470    -8.7850    15.6550 cd         1 IKB       0.403300
      8 C20         91.7860    -7.3420    16.7880 cc         1 IKB       0.283900
      9 C21         92.7980    -7.4000    15.8270 cd         1 IKB      -0.088300
     10 C22         89.0330    -9.5130    15.5880 c3         1 IKB      -0.141400
     11 C23         94.1130    -6.6580    15.9190 c3         1 IKB      -0.041800
     12 C24         93.0030    -9.8380    11.6730 c3         1 IKB      -0.078700
     13 C25         93.8150   -11.1480    11.8260 c3         1 IKB      -0.109700
     14 N01         95.4300   -11.3990     9.8390 na         1 IKB      -0.062700
     15 N02         95.5210   -12.0900     8.6710 nc         1 IKB      -0.613800
     16 C03         94.4020   -12.7850     8.7090 cd         1 IKB       0.795900
     17 N04         93.5940   -12.6060     9.7980 nd         1 IKB      -0.749000
     18 N06         94.0340   -13.6650     7.7060 nh         1 IKB      -0.772300
     19 C08         94.7180   -15.4510     6.0760 c6         1 IKB      -0.085900
     20 C09         93.2680   -15.6530     5.5620 c6         1 IKB      -0.069400
     21 C12         96.4800   -10.4520    10.2540 c3         1 IKB       0.076900
     22 N14         91.3430    -9.5720    13.5120 nc         1 IKB      -0.378300
     23 N15         93.3410    -8.4220    13.6850 nd         1 IKB      -0.593100
     24 N16         92.5060    -8.2150    14.7370 na         1 IKB       0.309400
     25 N19         90.5670    -8.0190    16.7230 nc         1 IKB      -0.648000
     26 H27         94.8480   -13.2990     5.7660 h1         1 IKB       0.047200
     27 H26         96.0140   -13.9480     6.9290 h1         1 IKB       0.047200
     28 H33         92.1540   -13.7830     5.6680 hc         1 IKB       0.043950
     29 H32         91.2610   -15.1660     6.2780 hc         1 IKB       0.043950
     30 H34         92.7180   -15.2310     8.3200 h1         1 IKB       0.047200
     31 H35         91.9280   -13.6590     8.1200 h1         1 IKB       0.047200
     32 H39         91.8980    -6.7400    17.6800 h4         1 IKB       0.039100
     33 H41         88.4070    -9.3130    16.4660 hc         1 IKB       0.065367
     34 H40         88.4700    -9.2100    14.6980 hc         1 IKB       0.065367
     35 H42         89.1950   -10.5950    15.5310 hc         1 IKB       0.065367
     36 H44         94.2390    -5.9720    15.0730 hc         1 IKB       0.064367
     37 H45         94.1760    -6.0650    16.8390 hc         1 IKB       0.064367
     38 H43         94.9600    -7.3550    15.9150 hc         1 IKB       0.064367
     39 H47         92.1200   -10.0310    11.0520 hc         1 IKB       0.071200
     40 H46         93.6040    -9.0990    11.1290 hc         1 IKB       0.071200
     41 H49         93.2020   -11.8900    12.3520 hc         1 IKB       0.075700
     42 H48         94.6870   -10.9640    12.4650 hc         1 IKB       0.075700
     43 H28         95.4340   -15.6930     5.2790 hc         1 IKB       0.043950
     44 H29         94.9180   -16.1600     6.8920 hc         1 IKB       0.043950
     45 H30         93.2280   -15.4870     4.4770 hc         1 IKB       0.041700
     46 H31         92.9720   -16.6990     5.7230 hc         1 IKB       0.041700
     47 H38         97.2370   -10.3570     9.4660 h1         1 IKB       0.055033
     48 H37         96.0350    -9.4670    10.4430 h1         1 IKB       0.055033
     49 H36         96.9590   -10.8150    11.1710 h1         1 IKB       0.055033
@<TRIPOS>BOND
     1     1    13 1   
     2     1    14 1   
     3     1    17 2   
     4     2    18 1   
     5     2    19 1   
     6     2    26 1   
     7     2    27 1   
     8     3     4 1   
     9     3    20 1   
    10     3    28 1   
    11     3    29 1   
    12     4    18 1   
    13     4    30 1   
    14     4    31 1   
    15     5    12 1   
    16     5    22 1   
    17     5    23 2   
    18     6     7 1   
    19     6    22 2   
    20     6    24 1   
    21     7    10 1   
    22     7    25 2   
    23     8     9 2   
    24     8    25 1   
    25     8    32 1   
    26     9    11 1   
    27     9    24 1   
    28    10    33 1   
    29    10    34 1   
    30    10    35 1   
    31    11    36 1   
    32    11    37 1   
    33    11    38 1   
    34    12    13 1   
    35    12    39 1   
    36    12    40 1   
    37    13    41 1   
    38    13    42 1   
    39    14    15 1   
    40    14    21 1   
    41    15    16 2   
    42    16    17 1   
    43    16    18 1   
    44    19    20 1   
    45    19    43 1   
    46    19    44 1   
    47    20    45 1   
    48    20    46 1   
    49    21    47 1   
    50    21    48 1   
    51    21    49 1   
    52    23    24 1   
@<TRIPOS>SUBSTRUCTURE
     1 IKB         1 TEMP              0 ****  ****    0 ROOT
