@<TRIPOS>MOLECULE
IKB
   49    52     1     0     0
SMALL
abcg2


@<TRIPOS>ATOM
      1 C05         94.2120   -11.9280    10.6380 cc         1 IKB       0.450800
      2 C07         95.0280   -14.2440     6.8940 c6         1 IKB       0.230300
      3 C10         92.0880   -14.6490     6.4950 c6         1 IKB      -0.085900
      4 C11         92.7800   -14.6320     7.8590 c6         1 IKB       0.230300
      5 C13         92.7650    -9.2190    12.9120 cc         1 IKB       0.524300
      6 C17         91.5030    -8.9390    14.5540 cd         1 IKB      -0.120000
      7 C18         90.5420    -8.9180    15.5940 cd         1 IKB       0.403300
      8 C20         91.6030    -7.0730    16.4750 cc         1 IKB       0.283900
      9 C21         92.5680    -7.0170    15.5120 cd         1 IKB      -0.088300
     10 C22         89.4630    -9.9450    15.6210 c3         1 IKB      -0.141400
     11 C23         93.6650    -6.0220    15.4310 c3         1 IKB      -0.041800
     12 C24         93.3530    -9.8050    11.6780 c3         1 IKB      -0.078700
     13 C25         93.7250   -11.2800    11.8860 c3         1 IKB      -0.109700
     14 N01         95.4340   -11.7970    10.1260 na         1 IKB      -0.062700
     15 N02         95.5370   -12.5090     8.9800 nc         1 IKB      -0.613800
     16 C03         94.3320   -13.0340     8.8590 cd         1 IKB       0.795900
     17 N04         93.4810   -12.7040     9.8600 nd         1 IKB      -0.749000
     18 N06         93.9800   -13.8190     7.8070 nh         1 IKB      -0.772300
     19 C08         94.4570   -15.1700     5.8260 c6         1 IKB      -0.085900
     20 C09         93.1090   -14.6510     5.3450 c6         1 IKB      -0.069400
     21 C12         96.5710   -11.0600    10.6120 c3         1 IKB       0.076900
     22 N14         91.6770    -9.7300    13.5080 nc         1 IKB      -0.378300
     23 N15         93.2870    -8.1600    13.5150 nd         1 IKB      -0.593100
     24 N16         92.4760    -7.9850    14.5570 na         1 IKB       0.309400
     25 N19         90.6160    -7.9990    16.5160 nc         1 IKB      -0.648000
     26 H27         95.4560   -13.3600     6.4110 h1         1 IKB       0.047200
     27 H26         95.8470   -14.7380     7.4310 h1         1 IKB       0.047200
     28 H33         91.4270   -13.7860     6.4030 hc         1 IKB       0.043950
     29 H32         91.4520   -15.5360     6.4450 hc         1 IKB       0.043950
     30 H34         93.0210   -15.6550     8.1740 h1         1 IKB       0.047200
     31 H35         92.1130   -14.2260     8.6150 h1         1 IKB       0.047200
     32 H39         91.6100    -6.3380    17.2690 h4         1 IKB       0.039100
     33 H41         88.8150    -9.7910    16.4800 hc         1 IKB       0.065367
     34 H40         88.8590    -9.8990    14.7140 hc         1 IKB       0.065367
     35 H42         89.8840   -10.9510    15.6740 hc         1 IKB       0.065367
     36 H44         93.6120    -5.4510    14.5030 hc         1 IKB       0.064367
     37 H45         93.5970    -5.3300    16.2670 hc         1 IKB       0.064367
     38 H43         94.6410    -6.5080    15.4610 hc         1 IKB       0.064367
     39 H47         92.6280    -9.7270    10.8640 hc         1 IKB       0.071200
     40 H46         94.2270    -9.2220    11.3860 hc         1 IKB       0.071200
     41 H49         92.8460   -11.8320    12.2170 hc         1 IKB       0.075700
     42 H48         94.4710   -11.3650    12.6800 hc         1 IKB       0.075700
     43 H28         95.1700   -15.2320     5.0020 hc         1 IKB       0.043950
     44 H29         94.3480   -16.1850     6.2160 hc         1 IKB       0.043950
     45 H30         93.2410   -13.6360     4.9600 hc         1 IKB       0.041700
     46 H31         92.7420   -15.2490     4.5090 hc         1 IKB       0.041700
     47 H38         96.8310   -10.2610     9.9190 h1         1 IKB       0.055033
     48 H37         96.3400   -10.6220    11.5790 h1         1 IKB       0.055033
     49 H36         97.4260   -11.7250    10.7250 h1         1 IKB       0.055033
@<TRIPOS>BOND
     1     1    13 1   
     2     1    14 1   
     3     1    17 2   
     4     2    18 1   
     5     2    19 1   
     6     2    26 1   
     7     2    27 1   
     8     3     4 1   
     9     3    20 1   
    10     3    28 1   
    11     3    29 1   
    12     4    18 1   
    13     4    30 1   
    14     4    31 1   
    15     5    12 1   
    16     5    22 1   
    17     5    23 2   
    18     6     7 1   
    19     6    22 2   
    20     6    24 1   
    21     7    10 1   
    22     7    25 2   
    23     8     9 2   
    24     8    25 1   
    25     8    32 1   
    26     9    11 1   
    27     9    24 1   
    28    10    33 1   
    29    10    34 1   
    30    10    35 1   
    31    11    36 1   
    32    11    37 1   
    33    11    38 1   
    34    12    13 1   
    35    12    39 1   
    36    12    40 1   
    37    13    41 1   
    38    13    42 1   
    39    14    15 1   
    40    14    21 1   
    41    15    16 2   
    42    16    17 1   
    43    16    18 1   
    44    19    20 1   
    45    19    43 1   
    46    19    44 1   
    47    20    45 1   
    48    20    46 1   
    49    21    47 1   
    50    21    48 1   
    51    21    49 1   
    52    23    24 1   
@<TRIPOS>SUBSTRUCTURE
     1 IKB         1 TEMP              0 ****  ****    0 ROOT
