@<TRIPOS>MOLECULE
IKC
   56    60     1     0     0
SMALL
No Charge or Current Charge


@<TRIPOS>ATOM
      1 C10         -3.2080     1.5090   -16.7670 ca         1 IKC       0.265900
      2 C13         -6.7790     0.5570   -16.6510 c          1 IKC       0.476500
      3 C17        -10.1000     1.0720   -17.1500 c3         1 IKC      -0.047100
      4 C20        -13.7570     0.0980   -16.5300 ca         1 IKC      -0.108500
      5 C21        -13.9590    -0.8830   -17.5150 ca         1 IKC      -0.105000
      6 C22        -12.9100    -1.2300   -18.3840 ca         1 IKC      -0.108500
      7 C28         -2.4710    -0.1240   -11.6510 ca         1 IKC      -0.079500
      8 C02         -7.7330     2.8510   -11.6530 c          1 IKC       0.608100
      9 C03         -8.4280     3.7010   -12.7240 c3         1 IKC      -0.044400
     10 C05         -7.7420     2.1010   -15.0470 cc         1 IKC       0.544800
     11 C07         -5.4760     2.3520   -15.4800 ca         1 IKC       0.293000
     12 C09         -3.1960     2.5900   -15.8710 ca         1 IKC       0.080900
     13 C12         -5.4790     1.2620   -16.3950 ca         1 IKC       0.182500
     14 C18        -11.4540     0.3900   -17.2830 ca         1 IKC      -0.091300
     15 C19        -12.5070     0.7320   -16.4140 ca         1 IKC      -0.102500
     16 C23        -11.6610    -0.5960   -18.2680 ca         1 IKC      -0.102500
     17 C25         -5.6320     1.5920   -11.3180 cc         1 IKC       0.546300
     18 C27         -3.7610     0.4100   -11.1480 cd         1 IKC       0.368500
     19 C29         -1.6620    -0.9640   -10.8510 ca         1 IKC      -0.134000
     20 C30         -0.4420    -1.4650   -11.3390 ca         1 IKC      -0.076000
     21 C31         -0.0100    -1.1340   -12.6330 ca         1 IKC      -0.200000
     22 C32         -0.8010    -0.3020   -13.4380 ca         1 IKC       0.128100
     23 C34         -2.0180     0.1980   -12.9530 ca         1 IKC      -0.113000
     24 C35         -4.2990     0.1560    -9.9050 cc         1 IKC      -0.300000
     25 N06         -6.6300     2.7880   -14.7990 nd         1 IKC      -0.759700
     26 N08         -4.3140     3.0040   -15.2400 nb         1 IKC      -0.096000
     27 N11         -4.3480     0.8380   -17.0410 nb         1 IKC      -0.563000
     28 N15         -7.8830     1.0320   -15.9300 n          1 IKC      -0.326300
     29 N24         -6.4910     2.4010   -12.0000 ns         1 IKC      -0.466400
     30 N26         -4.5330     1.2390   -11.9500 nd         1 IKC      -0.694000
     31 O01         -8.2590     2.5970   -10.5810 o          1 IKC      -0.567100
     32 O14         -6.8750    -0.3740   -17.4460 o          1 IKC      -0.474000
     33 O33         -0.3890     0.0230   -14.6960 oh         1 IKC      -0.539100
     34 S04         -9.1390     2.6800   -14.1190 ss         1 IKC      -0.189200
     35 S36         -5.8280     0.9610    -9.6990 ss         1 IKC       0.048600
     36 H1          -2.3010     1.1810   -17.2710 h4         1 IKC       0.041100
     37 H2          -9.5880     1.0950   -18.1200 hc         1 IKC       0.061700
     38 H3         -10.2360     2.1180   -16.8530 hc         1 IKC       0.061700
     39 H4         -14.5670     0.3670   -15.8560 ha         1 IKC       0.115000
     40 H5         -14.9250    -1.3740   -17.6050 ha         1 IKC       0.114000
     41 H6         -13.0650    -1.9910   -19.1460 ha         1 IKC       0.115000
     42 H7          -7.7210     4.4430   -13.1120 h1         1 IKC       0.114200
     43 H8          -9.2450     4.2380   -12.2310 h1         1 IKC       0.114200
     44 H9          -2.2770     3.1320   -15.6530 h4         1 IKC       0.042100
     45 H10         -9.7250     0.2860   -15.1640 h1         1 IKC       0.079700
     46 H11         -9.0470    -0.6820   -16.4500 h1         1 IKC       0.079700
     47 H12        -12.3590     1.4890   -15.6460 ha         1 IKC       0.115000
     48 H13        -10.8540    -0.8730   -18.9430 ha         1 IKC       0.115000
     49 H14         -1.9700    -1.2380    -9.8450 ha         1 IKC       0.115000
     50 H15          0.1690    -2.1100   -10.7100 ha         1 IKC       0.112000
     51 H16          0.9350    -1.5260   -13.0010 ha         1 IKC       0.112000
     52 H17         -2.6110     0.8390   -13.5990 ha         1 IKC       0.149000
     53 H18         -3.9070    -0.4480    -9.1000 h4         1 IKC       0.159000
     54 H19         -6.1990     2.6540   -12.9380 hn         1 IKC       0.381500
     55 H20          0.4750    -0.4110   -14.8590 ho         1 IKC       0.463000
     56 C16         -9.1980     0.3560   -16.1240 c3         1 IKC       0.085000
@<TRIPOS>BOND
     1     1    12 ar  
     2     1    27 ar  
     3     1    36 1   
     4     2    13 1   
     5     2    28 1   
     6     2    32 2   
     7     3    14 1   
     8     3    37 1   
     9     3    38 1   
    10     3    56 1   
    11     4     5 ar  
    12     4    15 ar  
    13     4    39 1   
    14     5     6 ar  
    15     5    40 1   
    16     6    16 ar  
    17     6    41 1   
    18     7    18 1   
    19     7    19 ar  
    20     7    23 ar  
    21     8     9 1   
    22     8    29 1   
    23     8    31 2   
    24     9    34 1   
    25     9    42 1   
    26     9    43 1   
    27    10    25 2   
    28    10    28 1   
    29    10    34 1   
    30    11    13 ar  
    31    11    25 1   
    32    11    26 ar  
    33    12    26 ar  
    34    12    44 1   
    35    13    27 ar  
    36    14    15 ar  
    37    14    16 ar  
    38    15    47 1   
    39    16    48 1   
    40    17    29 1   
    41    17    30 2   
    42    17    35 1   
    43    18    24 2   
    44    18    30 1   
    45    19    20 ar  
    46    19    49 1   
    47    20    21 ar  
    48    20    50 1   
    49    21    22 ar  
    50    21    51 1   
    51    22    23 ar  
    52    22    33 1   
    53    23    52 1   
    54    24    35 1   
    55    24    53 1   
    56    28    56 1   
    57    29    54 1   
    58    33    55 1   
    59    45    56 1   
    60    46    56 1   
@<TRIPOS>SUBSTRUCTURE
     1 IKC         1 TEMP              0 ****  ****    0 ROOT
