@<TRIPOS>MOLECULE
IKC
   56    60     1     0     0
SMALL
bcc


@<TRIPOS>ATOM
      1 C10         -3.6550     1.4430   -17.5460 ca         1 IKC       0.265900
      2 C13         -7.1250     0.5690   -17.2270 c          1 IKC       0.619000
      3 C17        -10.3140     1.2420   -17.1960 c3         1 IKC      -0.047100
      4 C20        -13.9180     0.3200   -16.4510 ca         1 IKC      -0.126500
      5 C21        -14.2470    -0.4540   -17.5570 ca         1 IKC      -0.123000
      6 C22        -13.3020    -0.6670   -18.5520 ca         1 IKC      -0.126500
      7 C28         -2.0790     0.0550   -11.1650 ca         1 IKC      -0.079500
      8 C02         -7.5480     2.3700   -11.7250 c          1 IKC       0.675100
      9 C03         -8.3700     3.0140   -12.8230 c3         1 IKC      -0.092300
     10 C05         -7.7650     1.5690   -15.1300 cc         1 IKC       0.544800
     11 C07         -5.6080     1.8870   -15.7940 ca         1 IKC       0.556000
     12 C09         -3.4490     2.1830   -16.3700 ca         1 IKC       0.343900
     13 C12         -5.8060     1.1440   -16.9570 ca         1 IKC       0.182500
     14 C18        -11.6960     0.6700   -17.3370 ca         1 IKC      -0.091300
     15 C19        -12.6500     0.8750   -16.3430 ca         1 IKC      -0.120500
     16 C23        -12.0350    -0.1090   -18.4410 ca         1 IKC      -0.120500
     17 C25         -5.3540     1.4480   -11.3030 cc         1 IKC       0.546300
     18 C27         -3.4340     0.4980   -10.8110 cd         1 IKC       0.433800
     19 C29         -1.2380    -0.5420   -10.2220 ca         1 IKC      -0.152000
     20 C30          0.0270    -0.9590   -10.5970 ca         1 IKC      -0.094000
     21 C31          0.4820    -0.7940   -11.8980 ca         1 IKC      -0.218000
     22 C32         -0.3500    -0.1960   -12.8390 ca         1 IKC       0.128100
     23 C34         -1.6250     0.2270   -12.4710 ca         1 IKC      -0.131000
     24 C35         -4.0660     0.3230    -9.6170 cc         1 IKC      -0.238400
     25 N06         -6.6130     2.0990   -14.9030 nd         1 IKC      -0.759700
     26 N08         -4.4110     2.4060   -15.5040 nb         1 IKC      -0.622000
     27 N11         -4.8280     0.9280   -17.8330 nb         1 IKC      -0.563000
     28 N15         -8.0690     0.8060   -16.2210 n          1 IKC      -0.393300
     29 N24         -6.2710     2.0990   -12.0850 ns         1 IKC      -0.533400
     30 N26         -4.1850     1.1440   -11.7580 nd         1 IKC      -0.694000
     31 O01         -7.9890     2.1200   -10.6220 o          1 IKC      -0.567100
     32 O14         -7.4030    -0.0660   -18.2170 o          1 IKC      -0.549500
     33 O33          0.0180    -0.0010   -14.1210 oh         1 IKC      -0.500100
     34 S04         -9.0710     1.8050   -13.9770 ss         1 IKC      -0.141300
     35 S36         -5.6560     0.9780    -9.6670 ss         1 IKC      -0.096300
     36 H1          -2.8410     1.2800   -18.2420 h4         1 IKC       0.041100
     37 H2          -9.8820     1.4360   -18.1800 hc         1 IKC       0.061700
     38 H3         -10.3550     2.1960   -16.6670 hc         1 IKC       0.061700
     39 H4         -14.6500     0.4940   -15.6730 ha         1 IKC       0.133000
     40 H5         -15.2360    -0.8840   -17.6450 ha         1 IKC       0.132000
     41 H6         -13.5520    -1.2680   -19.4180 ha         1 IKC       0.133000
     42 H7          -7.8090     3.7650   -13.3790 h1         1 IKC       0.114200
     43 H8          -9.2430     3.4910   -12.3780 h1         1 IKC       0.114200
     44 H9          -2.4710     2.5910   -16.1480 h4         1 IKC       0.042100
     45 H10         -9.8490     0.0030   -15.4700 h1         1 IKC       0.079700
     46 H11         -9.3150    -0.6640   -16.9850 h1         1 IKC       0.079700
     47 H12        -12.3980     1.4810   -15.4800 ha         1 IKC       0.133000
     48 H13        -11.3020    -0.2770   -19.2220 ha         1 IKC       0.133000
     49 H14         -1.5620    -0.6810    -9.1990 ha         1 IKC       0.133000
     50 H15          0.6770    -1.4200    -9.8640 ha         1 IKC       0.130000
     51 H16          1.4770    -1.1260   -12.1750 ha         1 IKC       0.130000
     52 H17         -2.2650     0.6890   -13.2110 ha         1 IKC       0.167000
     53 H18         -3.7020    -0.1570    -8.7230 h4         1 IKC       0.177000
     54 H19         -6.0080     2.2710   -13.0560 hn         1 IKC       0.381500
     55 H20          0.9180    -0.3130   -14.2660 ho         1 IKC       0.424000
     56 C16         -9.4160     0.2680   -16.4350 c3         1 IKC       0.085000
@<TRIPOS>BOND
     1     1    12 ar  
     2     1    27 ar  
     3     1    36 1   
     4     2    13 1   
     5     2    28 1   
     6     2    32 2   
     7     3    14 1   
     8     3    37 1   
     9     3    38 1   
    10     3    56 1   
    11     4     5 ar  
    12     4    15 ar  
    13     4    39 1   
    14     5     6 ar  
    15     5    40 1   
    16     6    16 ar  
    17     6    41 1   
    18     7    18 1   
    19     7    19 ar  
    20     7    23 ar  
    21     8     9 1   
    22     8    29 1   
    23     8    31 2   
    24     9    34 1   
    25     9    42 1   
    26     9    43 1   
    27    10    25 2   
    28    10    28 1   
    29    10    34 1   
    30    11    13 ar  
    31    11    25 1   
    32    11    26 ar  
    33    12    26 ar  
    34    12    44 1   
    35    13    27 ar  
    36    14    15 ar  
    37    14    16 ar  
    38    15    47 1   
    39    16    48 1   
    40    17    29 1   
    41    17    30 2   
    42    17    35 1   
    43    18    24 2   
    44    18    30 1   
    45    19    20 ar  
    46    19    49 1   
    47    20    21 ar  
    48    20    50 1   
    49    21    22 ar  
    50    21    51 1   
    51    22    23 ar  
    52    22    33 1   
    53    23    52 1   
    54    24    35 1   
    55    24    53 1   
    56    28    56 1   
    57    29    54 1   
    58    33    55 1   
    59    45    56 1   
    60    46    56 1   
@<TRIPOS>SUBSTRUCTURE
     1 IKC         1 TEMP              0 ****  ****    0 ROOT
