@<TRIPOS>MOLECULE
IKD
   47    49     1     0     0
SMALL
No Charge or Current Charge


@<TRIPOS>ATOM
      1 N1          10.0900    16.8100     7.2770 nu         1 IKD      -0.933900
      2 N3          12.3470    18.9030    10.8140 nu         1 IKD      -0.941900
      3 C4           4.5100    19.1370     8.1910 c3         1 IKD      -0.080767
      4 C5           6.9190    18.3490     7.8900 cc         1 IKD       0.279300
      5 C6           8.2780    18.2120     8.2190 cc         1 IKD      -0.230000
      6 C7           8.8060    17.2960     7.3740 cd         1 IKD       0.244000
      7 C8          11.2550    17.0330     8.0020 ca         1 IKD       0.423900
      8 C10         13.5750    16.6200     8.4160 ca         1 IKD       0.173900
      9 C13         11.3060    19.9440    12.7340 ca         1 IKD      -0.128500
     10 C15          9.4570    21.5140    12.4640 ca         1 IKD      -0.109300
     11 C17          8.9180    23.8140    13.2030 c1         1 IKD       0.299900
     12 C1           6.4250    20.7750     8.2990 c3         1 IKD      -0.080767
     13 C3           6.0830    19.0900    10.1570 c3         1 IKD      -0.080767
     14 C9          12.4310    16.3710     7.6430 ca         1 IKD      -0.332000
     15 N2          13.5420    17.4650     9.4650 nb         1 IKD      -0.263000
     16 C11         12.3610    18.0520     9.7190 ca         1 IKD       0.412900
     17 C12         11.3860    19.7740    11.3420 ca         1 IKD       0.312000
     18 C14         10.3450    20.8030    13.2950 ca         1 IKD      -0.078000
     19 N4           9.2980    24.9100    13.3210 n1         1 IKD      -0.461000
     20 C18          9.5520    21.3640    11.0680 ca         1 IKD      -0.078000
     21 C19         10.5140    20.5020    10.5120 ca         1 IKD      -0.128500
     22 N5          11.2160    17.8770     9.0420 nb         1 IKD      -0.282000
     23 N6           7.7440    16.9090     6.5570 na         1 IKD      -0.064200
     24 N7           6.5550    17.5730     6.8800 nd         1 IKD      -0.516800
     25 H1          10.2230    16.1380     6.5220 hn         1 IKD       0.501000
     26 H2          13.1610    18.7710    11.4140 hn         1 IKD       0.514000
     27 H3           3.8540    19.8320     8.7290 hc         1 IKD       0.036700
     28 H4           4.3840    19.3250     7.1170 hc         1 IKD       0.036700
     29 H5           4.1640    18.1170     8.4020 hc         1 IKD       0.036700
     30 H6           8.7840    18.7540     9.0040 ha         1 IKD       0.169000
     31 H7          14.5270    16.1380     8.1980 h4         1 IKD       0.024100
     32 H8          11.9800    19.3970    13.3870 ha         1 IKD       0.127500
     33 H9           5.7850    21.5010     8.8160 hc         1 IKD       0.036700
     34 H10          7.4610    20.9580     8.6100 hc         1 IKD       0.036700
     35 H11          6.3590    20.9690     7.2220 hc         1 IKD       0.036700
     36 H12          5.3880    19.7470    10.6940 hc         1 IKD       0.036700
     37 H13          5.8320    18.0530    10.4090 hc         1 IKD       0.036700
     38 H14          7.0910    19.2970    10.5380 hc         1 IKD       0.036700
     39 H15         12.4660    15.6850     6.8020 ha         1 IKD       0.132000
     40 H16         10.2900    20.9140    14.3760 ha         1 IKD       0.119000
     41 H17          7.5050    22.4670    12.4480 hc         1 IKD       0.076200
     42 H18          8.0970    22.0890    14.0580 hc         1 IKD       0.076200
     43 H19          8.8860    21.9200    10.4110 ha         1 IKD       0.119000
     44 H20         10.5870    20.4170     9.4330 ha         1 IKD       0.127500
     45 H21          7.7880    16.2290     5.8030 hn         1 IKD       0.365000
     46 C2           5.9940    19.3210     8.6230 c3         1 IKD      -0.076300
     47 C16          8.4080    22.4440    13.0690 c3         1 IKD       0.037000
@<TRIPOS>BOND
     1     1     6 1   
     2     1     7 1   
     3     1    25 1   
     4     2    16 1   
     5     2    17 1   
     6     2    26 1   
     7     3    27 1   
     8     3    28 1   
     9     3    29 1   
    10     3    46 1   
    11     4     5 1   
    12     4    24 2   
    13     4    46 1   
    14     5     6 2   
    15     5    30 1   
    16     6    23 1   
    17     7    14 ar  
    18     7    22 ar  
    19     8    14 ar  
    20     8    15 ar  
    21     8    31 1   
    22     9    17 ar  
    23     9    18 ar  
    24     9    32 1   
    25    10    18 ar  
    26    10    20 ar  
    27    10    47 1   
    28    11    19 3   
    29    11    47 1   
    30    12    33 1   
    31    12    34 1   
    32    12    35 1   
    33    12    46 1   
    34    13    36 1   
    35    13    37 1   
    36    13    38 1   
    37    13    46 1   
    38    14    39 1   
    39    15    16 ar  
    40    16    22 ar  
    41    17    21 ar  
    42    18    40 1   
    43    20    21 ar  
    44    20    43 1   
    45    21    44 1   
    46    23    24 1   
    47    23    45 1   
    48    41    47 1   
    49    42    47 1   
@<TRIPOS>SUBSTRUCTURE
     1 IKD         1 TEMP              0 ****  ****    0 ROOT
