@<TRIPOS>MOLECULE
IKD
   47    49     1     0     0
SMALL
abcg2


@<TRIPOS>ATOM
      1 N1          10.1180    16.8280     7.3110 nu         1 IKD      -0.933900
      2 N3          12.4520    18.9570    10.7250 nu         1 IKD      -0.941900
      3 C4           4.5990    19.0300     8.4490 c3         1 IKD      -0.080767
      4 C5           7.0300    18.4880     8.1120 cc         1 IKD       0.279300
      5 C6           8.4020    18.3400     8.4350 cc         1 IKD      -0.230000
      6 C7           8.8830    17.4120     7.5270 cd         1 IKD       0.244000
      7 C8          11.2710    17.0210     8.0210 ca         1 IKD       0.423900
      8 C10         13.5260    16.4970     8.4790 ca         1 IKD       0.173900
      9 C13         11.1780    19.8980    12.5470 ca         1 IKD      -0.128500
     10 C15          9.3670    21.4450    12.1440 ca         1 IKD      -0.109300
     11 C17          8.6790    23.3480    13.5670 c1         1 IKD       0.299900
     12 C1           6.3020    20.8570     8.2400 c3         1 IKD      -0.080767
     13 C3           6.2470    19.4180    10.2920 c3         1 IKD      -0.080767
     14 C9          12.4140    16.2650     7.7020 ca         1 IKD      -0.332000
     15 N2          13.5600    17.3880     9.4790 nb         1 IKD      -0.263000
     16 C11         12.4180    18.0600     9.6880 ca         1 IKD       0.412900
     17 C12         11.4090    19.7840    11.1730 ca         1 IKD       0.312000
     18 C14         10.1700    20.7210    13.0240 ca         1 IKD      -0.078000
     19 N4           9.0530    24.1600    14.2910 n1         1 IKD      -0.461000
     20 C18          9.6170    21.3490    10.7790 ca         1 IKD      -0.078000
     21 C19         10.6280    20.5320    10.2910 ca         1 IKD      -0.128500
     22 N5          11.2780    17.9180     9.0050 nb         1 IKD      -0.282000
     23 N6           7.8360    17.0660     6.7390 na         1 IKD      -0.064200
     24 N7           6.6920    17.7120     7.0860 nd         1 IKD      -0.516800
     25 H1          10.1640    16.1360     6.5770 hn         1 IKD       0.501000
     26 H2          13.2450    18.8460    11.3380 hn         1 IKD       0.514000
     27 H3           3.9110    19.7290     8.9300 hc         1 IKD       0.036700
     28 H4           4.4090    19.0480     7.3750 hc         1 IKD       0.036700
     29 H5           4.3800    18.0260     8.8150 hc         1 IKD       0.036700
     30 H6           8.9640    18.8270     9.2050 ha         1 IKD       0.169000
     31 H7          14.4420    15.9450     8.2990 h4         1 IKD       0.024100
     32 H8          11.7860    19.3250    13.2370 ha         1 IKD       0.127500
     33 H9           5.6190    21.5640     8.7150 hc         1 IKD       0.036700
     34 H10          7.3250    21.1710     8.4540 hc         1 IKD       0.036700
     35 H11          6.1480    20.9020     7.1600 hc         1 IKD       0.036700
     36 H12          5.5400    20.1020    10.7660 hc         1 IKD       0.036700
     37 H13          6.0800    18.4180    10.6980 hc         1 IKD       0.036700
     38 H14          7.2540    19.7340    10.5640 hc         1 IKD       0.036700
     39 H15         12.4130    15.5380     6.9030 ha         1 IKD       0.132000
     40 H16          9.9990    20.7860    14.0920 ha         1 IKD       0.119000
     41 H17          7.7030    22.7780    11.8240 hc         1 IKD       0.076200
     42 H18          7.4910    21.6930    13.1900 hc         1 IKD       0.076200
     43 H19          9.0140    21.9180    10.0820 ha         1 IKD       0.119000
     44 H20         10.8110    20.4740     9.2290 ha         1 IKD       0.127500
     45 H21          7.8300    16.3950     5.9870 hn         1 IKD       0.365000
     46 C2           6.0440    19.4310     8.7680 c3         1 IKD      -0.076300
     47 C16          8.2260    22.3020    12.6550 c3         1 IKD       0.037000
@<TRIPOS>BOND
     1     1     6 1   
     2     1     7 1   
     3     1    25 1   
     4     2    16 1   
     5     2    17 1   
     6     2    26 1   
     7     3    27 1   
     8     3    28 1   
     9     3    29 1   
    10     3    46 1   
    11     4     5 1   
    12     4    24 2   
    13     4    46 1   
    14     5     6 2   
    15     5    30 1   
    16     6    23 1   
    17     7    14 ar  
    18     7    22 ar  
    19     8    14 ar  
    20     8    15 ar  
    21     8    31 1   
    22     9    17 ar  
    23     9    18 ar  
    24     9    32 1   
    25    10    18 ar  
    26    10    20 ar  
    27    10    47 1   
    28    11    19 3   
    29    11    47 1   
    30    12    33 1   
    31    12    34 1   
    32    12    35 1   
    33    12    46 1   
    34    13    36 1   
    35    13    37 1   
    36    13    38 1   
    37    13    46 1   
    38    14    39 1   
    39    15    16 ar  
    40    16    22 ar  
    41    17    21 ar  
    42    18    40 1   
    43    20    21 ar  
    44    20    43 1   
    45    21    44 1   
    46    23    24 1   
    47    23    45 1   
    48    41    47 1   
    49    42    47 1   
@<TRIPOS>SUBSTRUCTURE
     1 IKD         1 TEMP              0 ****  ****    0 ROOT
