@<TRIPOS>MOLECULE
IKE
   45    48     1     0     0
SMALL
No Charge or Current Charge


@<TRIPOS>ATOM
      1 C6          13.4200    38.4250   -13.4450 c          1 IKE       0.649700
      2 C8           9.5390    35.8300    -8.5200 cc         1 IKE       0.140400
      3 C13         15.4920    37.0260   -16.2100 cc         1 IKE       0.252900
      4 C15         11.1470    38.6880   -11.3590 cc         1 IKE      -0.213000
      5 C17         10.2480    38.7230   -10.3020 cd         1 IKE      -0.057000
      6 C22         15.1650    40.3680   -15.2190 c3         1 IKE       0.070900
      7 C24          8.1390    35.5990    -6.4410 ca         1 IKE      -0.086000
      8 C26          8.2000    32.8020    -6.6670 ca         1 IKE      -0.118000
      9 C28          7.5100    33.4010    -5.6020 ca         1 IKE      -0.104000
     10 C1          10.8250    36.3840   -10.1310 cd         1 IKE       0.425500
     11 C2          14.3060    38.0060   -14.5920 cd         1 IKE      -0.156600
     12 C3          14.5930    36.7640   -15.1620 cc         1 IKE      -0.248600
     13 N4          11.7190    36.2910   -11.1750 nd         1 IKE      -0.685000
     14 N5          10.4610    35.3340    -9.4210 nc         1 IKE      -0.276600
     15 N7          10.1700    37.4940    -9.6690 na         1 IKE      -0.084400
     16 C9          11.8670    37.4810   -11.7410 cc         1 IKE       0.517900
     17 N10         15.0740    38.9050   -15.3670 na         1 IKE       0.180800
     18 N11         15.8040    38.2870   -16.3660 nd         1 IKE      -0.507800
     19 C12          9.2990    37.1850    -8.6550 cd         1 IKE      -0.273100
     20 N14         12.7530    37.4330   -12.7830 ns         1 IKE      -0.485400
     21 C16         14.1290    35.3830   -14.8460 c          1 IKE       0.644700
     22 O18         13.3210    39.5940   -13.1090 o          1 IKE      -0.596100
     23 C19          8.8240    35.0100    -7.5290 ca         1 IKE      -0.022800
     24 O20         13.3580    35.0920   -13.9500 o          1 IKE      -0.612100
     25 N21         14.6490    34.4050   -15.6630 ns         1 IKE      -0.484900
     26 C23          8.8570    33.6000    -7.6200 ca         1 IKE      -0.086000
     27 C25         14.3380    32.9780   -15.5410 c3         1 IKE       0.092300
     28 C27          7.4830    34.8000    -5.4880 ca         1 IKE      -0.118000
     29 H1          15.9450    36.3150   -16.8870 h4         1 IKE       0.043100
     30 H3           9.6570    39.5640    -9.9550 h4         1 IKE       0.147000
     31 H4          15.8450    40.7810   -15.9730 h1         1 IKE       0.071367
     32 H5          14.1720    40.8120   -15.3510 h1         1 IKE       0.071367
     33 H6          15.5480    40.6120   -14.2210 h1         1 IKE       0.071367
     34 H7           8.1140    36.6790    -6.3190 ha         1 IKE       0.122000
     35 H8           8.2280    31.7180    -6.7550 ha         1 IKE       0.111500
     36 H9           7.0030    32.7830    -4.8640 ha         1 IKE       0.111000
     37 H10          8.6340    37.8850    -8.1600 h4         1 IKE       0.232000
     38 H11         12.9980    36.4990   -13.0770 hn         1 IKE       0.398500
     39 H12         15.2850    34.6980   -16.3930 hn         1 IKE       0.321500
     40 H13          9.3860    33.1150    -8.4360 ha         1 IKE       0.122000
     41 H14         14.8810    32.4150   -16.3110 h1         1 IKE       0.046700
     42 H15         14.6400    32.6170   -14.5500 h1         1 IKE       0.046700
     43 H16         13.2590    32.8220   -15.6730 h1         1 IKE       0.046700
     44 H17          6.9570    35.2660    -4.6580 ha         1 IKE       0.111500
     45 H2          11.2860    39.5950   -11.9290 ha         1 IKE       0.168000
@<TRIPOS>BOND
     1     1    11 1   
     2     1    20 1   
     3     1    22 2   
     4     2    14 1   
     5     2    19 2   
     6     2    23 1   
     7     3    12 1   
     8     3    18 2   
     9     3    29 1   
    10     4     5 2   
    11     4    16 1   
    12     4    45 1   
    13     5    15 1   
    14     5    30 1   
    15     6    17 1   
    16     6    31 1   
    17     6    32 1   
    18     6    33 1   
    19     7    23 ar  
    20     7    28 ar  
    21     7    34 1   
    22     8     9 ar  
    23     8    26 ar  
    24     8    35 1   
    25     9    28 ar  
    26     9    36 1   
    27    10    13 1   
    28    10    14 2   
    29    10    15 1   
    30    11    12 2   
    31    11    17 1   
    32    12    21 1   
    33    13    16 2   
    34    15    19 1   
    35    16    20 1   
    36    17    18 1   
    37    19    37 1   
    38    20    38 1   
    39    21    24 2   
    40    21    25 1   
    41    23    26 ar  
    42    25    27 1   
    43    25    39 1   
    44    26    40 1   
    45    27    41 1   
    46    27    42 1   
    47    27    43 1   
    48    28    44 1   
@<TRIPOS>SUBSTRUCTURE
     1 IKE         1 TEMP              0 ****  ****    0 ROOT
