@<TRIPOS>MOLECULE
IKE
   45    48     1     0     0
SMALL
bcc


@<TRIPOS>ATOM
      1 C6          13.3310    38.4160   -13.5940 c          1 IKE       0.716700
      2 C8           9.5110    35.8770    -8.5360 cc         1 IKE       0.140400
      3 C13         15.6680    36.9950   -16.0610 cc         1 IKE       0.318200
      4 C15         11.2730    38.7680   -11.4070 cc         1 IKE      -0.296300
      5 C17         10.3490    38.7280   -10.4160 cd         1 IKE      -0.024300
      6 C22         15.1730    40.3040   -15.1130 c3         1 IKE       0.041600
      7 C24          7.9230    35.5020    -6.6510 ca         1 IKE      -0.104000
      8 C26          8.5600    32.8050    -6.5990 ca         1 IKE      -0.136000
      9 C28          7.6280    33.3090    -5.7020 ca         1 IKE      -0.122000
     10 C1          10.8370    36.4210   -10.1180 cd         1 IKE       0.425500
     11 C2          14.3460    37.9590   -14.5810 cd         1 IKE      -0.105900
     12 C3          14.6920    36.7090   -15.0970 cc         1 IKE      -0.313900
     13 N4          11.7510    36.4400   -11.0880 nd         1 IKE      -0.685000
     14 N5          10.4730    35.4020    -9.3790 nc         1 IKE      -0.276600
     15 N7          10.1240    37.5620    -9.7690 na         1 IKE      -0.135100
     16 C9          11.9690    37.5640   -11.7240 cc         1 IKE       0.583200
     17 N10         15.1050    38.8580   -15.2470 na         1 IKE       0.159400
     18 N11         15.9070    38.2860   -16.1280 nd         1 IKE      -0.507800
     19 C12          9.2730    37.2120    -8.7550 cd         1 IKE      -0.223100
     20 N14         12.9300    37.4670   -12.7130 ns         1 IKE      -0.552400
     21 C16         14.2160    35.3590   -14.7320 c          1 IKE       0.711700
     22 O18         12.9250    39.5620   -13.6120 o          1 IKE      -0.596100
     23 C19          8.8610    35.0040    -7.5580 ca         1 IKE      -0.022800
     24 O20         13.7940    35.0870   -13.6050 o          1 IKE      -0.612100
     25 N21         14.3030    34.4360   -15.6900 ns         1 IKE      -0.551900
     26 C23          9.1720    33.6430    -7.5190 ca         1 IKE      -0.104000
     27 C25         13.9340    33.0560   -15.4690 c3         1 IKE       0.092300
     28 C27          7.3130    34.6620    -5.7330 ca         1 IKE      -0.136000
     29 H1          16.2210    36.3080   -16.6840 h4         1 IKE       0.043100
     30 H3           9.7730    39.5890   -10.1070 h4         1 IKE       0.165000
     31 H4          16.0530    40.6250   -15.6600 h1         1 IKE       0.071367
     32 H5          14.2920    40.7780   -15.5360 h1         1 IKE       0.071367
     33 H6          15.2740    40.5930   -14.0710 h1         1 IKE       0.071367
     34 H7           7.6650    36.5530    -6.6530 ha         1 IKE       0.140000
     35 H8           8.8130    31.7530    -6.5840 ha         1 IKE       0.129500
     36 H9           7.1500    32.6540    -4.9850 ha         1 IKE       0.129000
     37 H10          8.6000    37.9220    -8.3050 h4         1 IKE       0.182000
     38 H11         13.3110    36.5150   -12.8410 hn         1 IKE       0.398500
     39 H12         14.5660    34.7090   -16.6220 hn         1 IKE       0.321500
     40 H13          9.8960    33.2410    -8.2140 ha         1 IKE       0.140000
     41 H14         14.1630    32.4950   -16.3700 h1         1 IKE       0.046700
     42 H15         14.4940    32.6240   -14.6410 h1         1 IKE       0.046700
     43 H16         12.8690    32.9510   -15.2580 h1         1 IKE       0.046700
     44 H17          6.5880    35.0670    -5.0370 ha         1 IKE       0.129500
     45 H2          11.4560    39.6930   -11.9230 ha         1 IKE       0.186000
@<TRIPOS>BOND
     1     1    11 1   
     2     1    20 1   
     3     1    22 2   
     4     2    14 1   
     5     2    19 2   
     6     2    23 1   
     7     3    12 1   
     8     3    18 2   
     9     3    29 1   
    10     4     5 2   
    11     4    16 1   
    12     4    45 1   
    13     5    15 1   
    14     5    30 1   
    15     6    17 1   
    16     6    31 1   
    17     6    32 1   
    18     6    33 1   
    19     7    23 ar  
    20     7    28 ar  
    21     7    34 1   
    22     8     9 ar  
    23     8    26 ar  
    24     8    35 1   
    25     9    28 ar  
    26     9    36 1   
    27    10    13 1   
    28    10    14 2   
    29    10    15 1   
    30    11    12 2   
    31    11    17 1   
    32    12    21 1   
    33    13    16 2   
    34    15    19 1   
    35    16    20 1   
    36    17    18 1   
    37    19    37 1   
    38    20    38 1   
    39    21    24 2   
    40    21    25 1   
    41    23    26 ar  
    42    25    27 1   
    43    25    39 1   
    44    26    40 1   
    45    27    41 1   
    46    27    42 1   
    47    27    43 1   
    48    28    44 1   
@<TRIPOS>SUBSTRUCTURE
     1 IKE         1 TEMP              0 ****  ****    0 ROOT
