@<TRIPOS>MOLECULE
IKF
   27    28     1     0     0
SMALL
bcc


@<TRIPOS>ATOM
      1 C1          13.0930    66.0940    12.3150 ca         1 IKF      -0.125500
      2 C2          13.4490    64.9600    11.5990 ca         1 IKF      -0.117500
      3 C7          13.1430    61.3870     8.3170 ca         1 IKF      -0.076500
      4 C6          13.8310    63.7530     9.4380 c3         1 IKF       0.028200
      5 C5          12.7360    67.2810    10.2570 ca         1 IKF      -0.125500
      6 C4          13.0960    66.1470     9.5420 ca         1 IKF      -0.117500
      7 C3          13.4640    64.9790    10.2070 ca         1 IKF      -0.072300
      8 C11         13.9930    60.4040     6.3070 ca         1 IKF      -0.141000
      9 C10         14.3790    59.2820     7.0300 ca         1 IKF      -0.096000
     10 C9          14.1380    59.2150     8.3970 ca         1 IKF      -0.141000
     11 C8          13.5140    60.2700     9.0490 ca         1 IKF      -0.064500
     12 C12         13.3640    61.4610     6.9480 ca         1 IKF      -0.064500
     13 C           12.7350    67.2570    11.6460 ca         1 IKF      -0.126000
     14 O           11.8570    62.2670    10.4810 o          1 IKF      -0.476200
     15 S           12.3190    62.7520     9.1330 sx         1 IKF       0.203400
     16 H1          13.0940    66.0700    13.3970 ha         1 IKF       0.131000
     17 H2          13.7360    64.0580    12.1260 ha         1 IKF       0.133000
     18 H6          14.2490    63.9870     8.4580 h1         1 IKF       0.083700
     19 H5          14.5280    63.1120     9.9810 h1         1 IKF       0.083700
     20 H4          12.4600    68.1840     9.7290 ha         1 IKF       0.131000
     21 H3          13.1010    66.1730     8.4590 ha         1 IKF       0.133000
     22 H10         14.1730    60.4530     5.2410 ha         1 IKF       0.134000
     23 H9          14.8640    58.4560     6.5260 ha         1 IKF       0.132000
     24 H8          14.4350    58.3390     8.9570 ha         1 IKF       0.134000
     25 H7          13.3180    60.2200    10.1120 ha         1 IKF       0.144000
     26 H11         13.0490    62.3320     6.3850 ha         1 IKF       0.144000
     27 H           12.4590    68.1420    12.2040 ha         1 IKF       0.130000
@<TRIPOS>BOND
     1     1     2 ar  
     2     1    13 ar  
     3     1    16 1   
     4     2     7 ar  
     5     2    17 1   
     6     3    11 ar  
     7     3    12 ar  
     8     3    15 1   
     9     4     7 1   
    10     4    15 1   
    11     4    18 1   
    12     4    19 1   
    13     5     6 ar  
    14     5    13 ar  
    15     5    20 1   
    16     6     7 ar  
    17     6    21 1   
    18     8     9 ar  
    19     8    12 ar  
    20     8    22 1   
    21     9    10 ar  
    22     9    23 1   
    23    10    11 ar  
    24    10    24 1   
    25    11    25 1   
    26    12    26 1   
    27    13    27 1   
    28    14    15 2   
@<TRIPOS>SUBSTRUCTURE
     1 IKF         1 TEMP              0 ****  ****    0 ROOT
