@<TRIPOS>MOLECULE
IKF
   27    28     1     0     0
SMALL
No Charge or Current Charge


@<TRIPOS>ATOM
      1 C1          12.9870    66.1680    12.3870 ca         1 IKF      -0.107500
      2 C2          13.3060    64.9810    11.7040 ca         1 IKF      -0.099500
      3 C7          13.1070    61.3600     8.2370 ca         1 IKF      -0.076500
      4 C6          13.7730    63.6960     9.5600 c3         1 IKF       0.028200
      5 C5          12.9040    67.3640    10.2700 ca         1 IKF      -0.107500
      6 C4          13.2230    66.1780     9.5870 ca         1 IKF      -0.099500
      7 C3          13.4270    64.9800    10.3000 ca         1 IKF      -0.072300
      8 C11         13.8320    60.2570     6.1900 ca         1 IKF      -0.123000
      9 C10         14.4360    59.2400     6.9510 ca         1 IKF      -0.078000
     10 C9          14.3750    59.2830     8.3550 ca         1 IKF      -0.123000
     11 C8          13.7120    60.3420     9.0000 ca         1 IKF      -0.046500
     12 C12         13.1680    61.3170     6.8320 ca         1 IKF      -0.046500
     13 C           12.7860    67.3590    11.6700 ca         1 IKF      -0.108000
     14 O           11.5920    62.2080    10.3220 o          1 IKF      -0.503000
     15 S           12.2490    62.7510     9.0630 sx         1 IKF       0.230200
     16 H1          12.8940    66.1620    13.4710 ha         1 IKF       0.113000
     17 H2          13.4570    64.0610    12.2650 ha         1 IKF       0.115000
     18 H6          14.3300    63.9210     8.6430 h1         1 IKF       0.083700
     19 H5          14.3820    63.0370    10.1900 h1         1 IKF       0.083700
     20 H4          12.7480    68.2860     9.7140 ha         1 IKF       0.113000
     21 H3          13.3120    66.1900     8.5030 ha         1 IKF       0.115000
     22 H10         13.8790    60.2240     5.1040 ha         1 IKF       0.116000
     23 H9          14.9500    58.4200     6.4530 ha         1 IKF       0.114000
     24 H8          14.8420    58.4970     8.9440 ha         1 IKF       0.116000
     25 H7          13.6670    60.3720    10.0860 ha         1 IKF       0.126000
     26 H11         12.7020    62.1030     6.2410 ha         1 IKF       0.126000
     27 H           12.5380    68.2780    12.1990 ha         1 IKF       0.112000
@<TRIPOS>BOND
     1     1     2 ar  
     2     1    13 ar  
     3     1    16 1   
     4     2     7 ar  
     5     2    17 1   
     6     3    11 ar  
     7     3    12 ar  
     8     3    15 1   
     9     4     7 1   
    10     4    15 1   
    11     4    18 1   
    12     4    19 1   
    13     5     6 ar  
    14     5    13 ar  
    15     5    20 1   
    16     6     7 ar  
    17     6    21 1   
    18     8     9 ar  
    19     8    12 ar  
    20     8    22 1   
    21     9    10 ar  
    22     9    23 1   
    23    10    11 ar  
    24    10    24 1   
    25    11    25 1   
    26    12    26 1   
    27    13    27 1   
    28    14    15 2   
@<TRIPOS>SUBSTRUCTURE
     1 IKF         1 TEMP              0 ****  ****    0 ROOT
