@<TRIPOS>MOLECULE
IKG
   57    60     1     0     0
SMALL
No Charge or Current Charge


@<TRIPOS>ATOM
      1 C2          -5.3530    15.7550   -12.3740 ca         1 IKG       0.142100
      2 C4          -7.5880    16.5460   -12.9680 ca         1 IKG      -0.056000
      3 C3          -6.7560    15.5990   -12.3490 ca         1 IKG      -0.185000
      4 C9          -7.9320    18.6580   -14.2750 cc         1 IKG       0.634500
      5 C8          -2.7390    18.1090   -13.6810 c3         1 IKG       0.145900
      6 C13         -7.1860    23.1650   -18.6920 c3         1 IKG      -0.037100
      7 C15         -5.9390    24.7590   -20.2390 ca         1 IKG      -0.108500
      8 C14         -7.1070    24.4420   -19.5230 ca         1 IKG      -0.079300
      9 C7          -4.7890    16.8740   -13.0290 ca         1 IKG       0.099100
     10 C23         -5.0420    29.1250   -21.1920 cy         1 IKG       0.097000
     11 C24         -5.7870    24.0240   -16.7880 c1         1 IKG       0.282900
     12 C21         -5.7290    29.6900   -23.1300 cy         1 IKG       0.097000
     13 C6          -5.6350    17.8230   -13.6510 ca         1 IKG      -0.125000
     14 C10         -8.5020    20.3620   -15.3440 cd         1 IKG       0.436500
     15 C12         -7.0830    23.4250   -17.1670 c3         1 IKG       0.177800
     16 C11         -8.5640    21.6480   -16.1330 c          1 IKG       0.539600
     17 C5          -7.0440    17.6710   -13.6280 ca         1 IKG      -0.160500
     18 C1          -4.9900    13.6730   -11.0850 c3         1 IKG       0.144900
     19 O1          -4.5050    14.8390   -11.7730 os         1 IKG      -0.324100
     20 O2          -3.4090    17.0070   -13.0410 os         1 IKG      -0.328100
     21 N1          -9.2500    18.5570   -14.2800 nd         1 IKG      -0.360300
     22 O3          -9.6470    19.7050   -15.0000 os         1 IKG      -0.057700
     23 N2          -7.4070    19.7450   -14.9130 nc         1 IKG      -0.720000
     24 O4          -9.5970    22.1910   -16.5150 o          1 IKG      -0.539100
     25 N3          -7.3180    22.1910   -16.4010 ns         1 IKG      -0.491900
     26 C16         -5.8650    25.9390   -20.9980 ca         1 IKG      -0.069000
     27 C17         -6.9620    26.8350   -21.0590 ca         1 IKG      -0.131600
     28 C18         -8.1350    26.4990   -20.3400 ca         1 IKG      -0.069000
     29 C19         -8.2040    25.3180   -19.5810 ca         1 IKG      -0.108500
     30 O5          -7.9740    28.7290   -22.0250 o          1 IKG      -0.603100
     31 N4          -5.5970    28.3980   -22.3760 nj         1 IKG      -0.417800
     32 C22         -4.5290    30.1650   -22.2440 cy         1 IKG      -0.115400
     33 H1          -8.6660    16.3940   -12.9300 ha         1 IKG       0.134000
     34 H2          -7.2200    14.7510   -11.8540 ha         1 IKG       0.126000
     35 H3          -1.6530    18.0100   -13.5660 h1         1 IKG       0.043367
     36 H4          -2.9660    18.1340   -14.7540 h1         1 IKG       0.043367
     37 H5          -3.0420    19.0630   -13.2320 h1         1 IKG       0.043367
     38 H6          -8.1370    22.6610   -18.9030 hc         1 IKG       0.064700
     39 H7          -6.4020    22.4580   -18.9920 hc         1 IKG       0.064700
     40 H8          -5.0810    24.0910   -20.2080 ha         1 IKG       0.118500
     41 H10         -5.7710    29.5390   -20.4810 h1         1 IKG       0.059950
     42 H11         -6.6270    30.3000   -22.9800 h1         1 IKG       0.059950
     43 H12         -5.4940    29.6010   -24.1970 h1         1 IKG       0.059950
     44 H13         -5.2060    18.6840   -14.1550 ha         1 IKG       0.137000
     45 H14         -7.8590    24.1520   -16.8910 h1         1 IKG       0.112700
     46 H15         -4.1500    13.0900   -10.6870 h1         1 IKG       0.045367
     47 H16         -5.6350    13.9550   -10.2430 h1         1 IKG       0.045367
     48 H17         -5.5590    13.0260   -11.7650 h1         1 IKG       0.045367
     49 H18         -6.5200    21.6730   -16.0410 hn         1 IKG       0.349500
     50 H19         -4.9440    26.1390   -21.5420 ha         1 IKG       0.129500
     51 H20         -9.0020    27.1550   -20.3600 ha         1 IKG       0.129500
     52 H21         -9.1170    25.0850   -19.0370 ha         1 IKG       0.118500
     53 H22         -3.5420    29.9340   -22.6610 hc         1 IKG       0.063200
     54 H23         -4.5490    31.2140   -21.9310 hc         1 IKG       0.063200
     55 N5          -4.7590    24.4720   -16.4700 n1         1 IKG      -0.435000
     56 C20         -6.9140    28.1260   -21.8730 c          1 IKG       0.613700
     57 H9          -4.2480    28.5800   -20.6690 h1         1 IKG       0.059950
@<TRIPOS>BOND
     1     1     3 ar  
     2     1     9 ar  
     3     1    19 1   
     4     2     3 ar  
     5     2    17 ar  
     6     2    33 1   
     7     3    34 1   
     8     4    17 1   
     9     4    21 2   
    10     4    23 1   
    11     5    20 1   
    12     5    35 1   
    13     5    36 1   
    14     5    37 1   
    15     6     8 1   
    16     6    15 1   
    17     6    38 1   
    18     6    39 1   
    19     7     8 ar  
    20     7    26 ar  
    21     7    40 1   
    22     8    29 ar  
    23     9    13 ar  
    24     9    20 1   
    25    10    31 1   
    26    10    32 1   
    27    10    41 1   
    28    10    57 1   
    29    11    15 1   
    30    11    55 3   
    31    12    31 1   
    32    12    32 1   
    33    12    42 1   
    34    12    43 1   
    35    13    17 ar  
    36    13    44 1   
    37    14    16 1   
    38    14    22 1   
    39    14    23 2   
    40    15    25 1   
    41    15    45 1   
    42    16    24 2   
    43    16    25 1   
    44    18    19 1   
    45    18    46 1   
    46    18    47 1   
    47    18    48 1   
    48    21    22 1   
    49    25    49 1   
    50    26    27 ar  
    51    26    50 1   
    52    27    28 ar  
    53    27    56 1   
    54    28    29 ar  
    55    28    51 1   
    56    29    52 1   
    57    30    56 2   
    58    31    56 1   
    59    32    53 1   
    60    32    54 1   
@<TRIPOS>SUBSTRUCTURE
     1 IKG         1 TEMP              0 ****  ****    0 ROOT
