@<TRIPOS>MOLECULE
IKG
   57    60     1     0     0
SMALL
abcg2


@<TRIPOS>ATOM
      1 C2          -5.3920    15.8400   -12.4840 ca         1 IKG       0.142100
      2 C4          -7.5540    16.9130   -12.6040 ca         1 IKG      -0.056000
      3 C3          -6.7370    15.8920   -12.1330 ca         1 IKG      -0.185000
      4 C9          -7.8630    18.9860   -13.9340 cc         1 IKG       0.634500
      5 C8          -2.9480    17.7020   -14.4760 c3         1 IKG       0.145900
      6 C13         -6.9090    23.0260   -18.7150 c3         1 IKG      -0.037100
      7 C15         -5.6170    24.7550   -20.0170 ca         1 IKG      -0.108500
      8 C14         -6.8420    24.1980   -19.6560 ca         1 IKG      -0.079300
      9 C7          -4.8560    16.8360   -13.3350 ca         1 IKG       0.099100
     10 C23         -5.0050    28.9630   -20.9030 cy         1 IKG       0.097000
     11 C24         -6.3810    24.4410   -16.7330 c1         1 IKG       0.282900
     12 C21         -5.7610    29.8770   -22.7090 cy         1 IKG       0.097000
     13 C6          -5.6750    17.8500   -13.8000 ca         1 IKG      -0.125000
     14 C10         -8.4340    20.7250   -14.9560 cd         1 IKG       0.436500
     15 C12         -7.3150    23.4460   -17.2840 c3         1 IKG       0.177800
     16 C11         -8.5530    21.9700   -15.7770 c          1 IKG       0.539600
     17 C5          -7.0300    17.8980   -13.4360 ca         1 IKG      -0.160500
     18 C1          -5.0120    13.8600   -11.2050 c3         1 IKG       0.144900
     19 O1          -4.5250    14.8900   -12.0690 os         1 IKG      -0.324100
     20 O2          -3.5390    16.7120   -13.6340 os         1 IKG      -0.328100
     21 N1          -9.1360    19.1300   -13.6370 nd         1 IKG      -0.360300
     22 O3          -9.5200    20.2920   -14.3190 os         1 IKG      -0.057700
     23 N2          -7.3920    19.9830   -14.7680 nc         1 IKG      -0.720000
     24 O4          -9.6070    22.5810   -15.8450 o          1 IKG      -0.539100
     25 N3          -7.4050    22.3040   -16.3980 ns         1 IKG      -0.491900
     26 C16         -5.5600    25.8640   -20.8530 ca         1 IKG      -0.069000
     27 C17         -6.7320    26.4290   -21.3540 ca         1 IKG      -0.131600
     28 C18         -7.9600    25.8590   -21.0110 ca         1 IKG      -0.069000
     29 C19         -8.0140    24.7640   -20.1640 ca         1 IKG      -0.108500
     30 O5          -7.5450    27.6870   -23.2100 o          1 IKG      -0.603100
     31 N4          -5.8030    28.5500   -22.0790 nj         1 IKG      -0.417800
     32 C22         -4.9240    30.3860   -21.5080 cy         1 IKG      -0.115400
     33 H1          -8.5960    16.9370   -12.3180 ha         1 IKG       0.134000
     34 H2          -7.1580    15.1360   -11.4870 ha         1 IKG       0.126000
     35 H3          -1.9050    17.4160   -14.5820 h1         1 IKG       0.043367
     36 H4          -3.4280    17.7190   -15.4570 h1         1 IKG       0.043367
     37 H5          -3.0140    18.6930   -14.0200 h1         1 IKG       0.043367
     38 H6          -7.6620    22.3080   -19.0430 hc         1 IKG       0.064700
     39 H7          -5.9470    22.5140   -18.6700 hc         1 IKG       0.064700
     40 H8          -4.7000    24.3170   -19.6440 ha         1 IKG       0.118500
     41 H10         -5.5500    28.8740   -19.9630 h1         1 IKG       0.059950
     42 H11         -6.7510    30.3210   -22.8210 h1         1 IKG       0.059950
     43 H12         -5.2530    29.8790   -23.6750 h1         1 IKG       0.059950
     44 H13         -5.2810    18.6180   -14.4460 ha         1 IKG       0.137000
     45 H14         -8.3030    23.9090   -17.3090 h1         1 IKG       0.112700
     46 H15         -4.1580    13.2200   -11.0000 h1         1 IKG       0.045367
     47 H16         -5.3910    14.2810   -10.2710 h1         1 IKG       0.045367
     48 H17         -5.7990    13.2820   -11.6940 h1         1 IKG       0.045367
     49 H18         -6.5950    21.7120   -16.2770 hn         1 IKG       0.349500
     50 H19         -4.5970    26.2680   -21.1310 ha         1 IKG       0.129500
     51 H20         -8.8710    26.2850   -21.4110 ha         1 IKG       0.129500
     52 H21         -8.9730    24.3370   -19.8960 ha         1 IKG       0.118500
     53 H22         -3.9180    30.7100   -21.7600 hc         1 IKG       0.063200
     54 H23         -5.4180    31.1520   -20.9150 hc         1 IKG       0.063200
     55 N5          -5.6380    25.2110   -16.3140 n1         1 IKG      -0.435000
     56 C20         -6.7260    27.5990   -22.2850 c          1 IKG       0.613700
     57 H9          -4.0510    28.4440   -20.8220 h1         1 IKG       0.059950
@<TRIPOS>BOND
     1     1     3 ar  
     2     1     9 ar  
     3     1    19 1   
     4     2     3 ar  
     5     2    17 ar  
     6     2    33 1   
     7     3    34 1   
     8     4    17 1   
     9     4    21 2   
    10     4    23 1   
    11     5    20 1   
    12     5    35 1   
    13     5    36 1   
    14     5    37 1   
    15     6     8 1   
    16     6    15 1   
    17     6    38 1   
    18     6    39 1   
    19     7     8 ar  
    20     7    26 ar  
    21     7    40 1   
    22     8    29 ar  
    23     9    13 ar  
    24     9    20 1   
    25    10    31 1   
    26    10    32 1   
    27    10    41 1   
    28    10    57 1   
    29    11    15 1   
    30    11    55 3   
    31    12    31 1   
    32    12    32 1   
    33    12    42 1   
    34    12    43 1   
    35    13    17 ar  
    36    13    44 1   
    37    14    16 1   
    38    14    22 1   
    39    14    23 2   
    40    15    25 1   
    41    15    45 1   
    42    16    24 2   
    43    16    25 1   
    44    18    19 1   
    45    18    46 1   
    46    18    47 1   
    47    18    48 1   
    48    21    22 1   
    49    25    49 1   
    50    26    27 ar  
    51    26    50 1   
    52    27    28 ar  
    53    27    56 1   
    54    28    29 ar  
    55    28    51 1   
    56    29    52 1   
    57    30    56 2   
    58    31    56 1   
    59    32    53 1   
    60    32    54 1   
@<TRIPOS>SUBSTRUCTURE
     1 IKG         1 TEMP              0 ****  ****    0 ROOT
