@<TRIPOS>MOLECULE
IKH
   43    46     1     0     0
SMALL
No Charge or Current Charge


@<TRIPOS>ATOM
      1 C01         26.0500    46.9750   -14.9150 cc         1 IKH      -0.021000
      2 C02         26.3520    47.7000   -13.7890 cd         1 IKH      -0.155000
      3 C05         24.8150    47.2620   -15.5490 cc         1 IKH      -0.120000
      4 C07         22.8590    48.3370   -15.7950 cc         1 IKH      -0.138300
      5 N09         24.2720    46.7350   -16.6300 nd         1 IKH      -0.268600
      6 C10         21.7110    49.2830   -15.5680 c3         1 IKH       0.243800
      7 C13         25.6810    49.4710   -12.1690 ch         1 IKH      -0.197000
      8 C15         26.4000    50.8270   -10.0130 cc         1 IKH       0.504500
      9 C17         27.6540    51.6410    -8.3750 cc         1 IKH      -0.200000
     10 C18         26.3610    52.1020    -8.2840 cd         1 IKH       0.298500
     11 C21         25.8210    53.0190    -7.2560 ca         1 IKH      -0.106500
     12 C22         24.4640    53.4150    -7.2800 ca         1 IKH      -0.093500
     13 C23         23.9520    54.2860    -6.3020 ca         1 IKH      -0.114500
     14 C24         24.7880    54.7730    -5.2860 ca         1 IKH      -0.108000
     15 C25         26.1370    54.3880    -5.2490 ca         1 IKH      -0.114500
     16 C26         26.6510    53.5170    -6.2260 ca         1 IKH      -0.093500
     17 C03         25.4100    48.6960   -13.3280 cd         1 IKH       0.440000
     18 N04         24.2360    48.9870   -13.9090 nc         1 IKH      -0.431800
     19 N06         23.9900    48.2210   -15.0320 na         1 IKH       0.256900
     20 C08         23.0600    47.3980   -16.7880 cd         1 IKH       0.077400
     21 O11         20.5670    48.5720   -15.0830 oh         1 IKH      -0.648000
     22 C12         22.1370    47.0730   -17.9330 c3         1 IKH      -0.021900
     23 C14         25.9790    50.1100   -11.1700 cg         1 IKH      -0.144000
     24 N16         27.6770    50.8230    -9.4850 na         1 IKH      -0.141500
     25 N19         25.5870    51.5920    -9.3070 nd         1 IKH      -0.626000
     26 H27         26.7150    46.2150   -15.3140 ha         1 IKH       0.149000
     27 H28         27.2790    47.5320   -13.2550 ha         1 IKH       0.135000
     28 H29         22.0060    50.0650   -14.8550 h1         1 IKH       0.035700
     29 H30         21.4740    49.7820   -16.5170 h1         1 IKH       0.035700
     30 H35         28.5240    51.8250    -7.7590 h4         1 IKH       0.161000
     31 H36         29.7180    50.2830    -9.3720 h1         1 IKH       0.058700
     32 H37         28.6290    49.0120   -10.0020 h1         1 IKH       0.058700
     33 H38         29.0570    50.4140   -11.0280 h1         1 IKH       0.058700
     34 H39         23.7970    53.0500    -8.0580 ha         1 IKH       0.119000
     35 H40         22.9060    54.5830    -6.3340 ha         1 IKH       0.111500
     36 H41         24.3920    55.4470    -4.5290 ha         1 IKH       0.111000
     37 H42         26.7870    54.7640    -4.4620 ha         1 IKH       0.111500
     38 H43         27.6990    53.2350    -6.1730 ha         1 IKH       0.119000
     39 H31         19.8610    49.2410   -14.9400 ho         1 IKH       0.446000
     40 H34         22.5510    46.2850   -18.5730 hc         1 IKH       0.051033
     41 H32         21.1650    46.7270   -17.5630 hc         1 IKH       0.051033
     42 H33         21.9650    47.9560   -18.5580 hc         1 IKH       0.051033
     43 C20         28.8420    50.0880   -10.0030 c3         1 IKH       0.056900
@<TRIPOS>BOND
     1     1     2 2   
     2     1     3 1   
     3     1    26 1   
     4     2    17 1   
     5     2    27 1   
     6     3     5 2   
     7     3    19 1   
     8     4     6 1   
     9     4    19 1   
    10     4    20 2   
    11     5    20 1   
    12     6    21 1   
    13     6    28 1   
    14     6    29 1   
    15     7    17 1   
    16     7    23 3   
    17     8    23 1   
    18     8    24 1   
    19     8    25 2   
    20     9    10 2   
    21     9    24 1   
    22     9    30 1   
    23    10    11 1   
    24    10    25 1   
    25    11    12 ar  
    26    11    16 ar  
    27    12    13 ar  
    28    12    34 1   
    29    13    14 ar  
    30    13    35 1   
    31    14    15 ar  
    32    14    36 1   
    33    15    16 ar  
    34    15    37 1   
    35    16    38 1   
    36    17    18 2   
    37    18    19 1   
    38    20    22 1   
    39    21    39 1   
    40    22    40 1   
    41    22    41 1   
    42    22    42 1   
    43    24    43 1   
    44    31    43 1   
    45    32    43 1   
    46    33    43 1   
@<TRIPOS>SUBSTRUCTURE
     1 IKH         1 TEMP              0 ****  ****    0 ROOT
