@<TRIPOS>MOLECULE
IKH
   43    46     1     0     0
SMALL
abcg2


@<TRIPOS>ATOM
      1 C01         26.0500    47.0470   -14.9110 cc         1 IKH      -0.021000
      2 C02         26.3300    47.7810   -13.7990 cd         1 IKH      -0.155000
      3 C05         24.8380    47.2950   -15.5730 cc         1 IKH      -0.120000
      4 C07         22.9070    48.3570   -15.8340 cc         1 IKH      -0.138300
      5 N09         24.2900    46.7630   -16.6460 nd         1 IKH      -0.268600
      6 C10         21.7960    49.3010   -15.5800 c3         1 IKH       0.243800
      7 C13         25.6690    49.5160   -12.1920 ch         1 IKH      -0.197000
      8 C15         26.3070    50.8340   -10.0260 cc         1 IKH       0.504500
      9 C17         27.5680    51.5480    -8.4020 cc         1 IKH      -0.200000
     10 C18         26.3010    52.0860    -8.2990 cd         1 IKH       0.298500
     11 C21         25.7870    53.0030    -7.2830 ca         1 IKH      -0.106500
     12 C22         24.4230    53.2920    -7.2130 ca         1 IKH      -0.093500
     13 C23         23.9320    54.1580    -6.2470 ca         1 IKH      -0.114500
     14 C24         24.7920    54.7520    -5.3330 ca         1 IKH      -0.108000
     15 C25         26.1510    54.4720    -5.3960 ca         1 IKH      -0.114500
     16 C26         26.6440    53.6080    -6.3610 ca         1 IKH      -0.093500
     17 C03         25.3910    48.7560   -13.3620 cd         1 IKH       0.440000
     18 N04         24.2570    49.0050   -13.9680 nc         1 IKH      -0.431800
     19 N06         24.0180    48.2770   -15.0440 na         1 IKH       0.256900
     20 C08         23.1060    47.4030   -16.8130 cd         1 IKH       0.077400
     21 O11         21.0830    48.8910   -14.4310 oh         1 IKH      -0.648000
     22 C12         22.1840    47.0660   -17.9330 c3         1 IKH      -0.021900
     23 C14         25.9440    50.1310   -11.1920 cg         1 IKH      -0.144000
     24 N16         27.5580    50.7580    -9.5000 na         1 IKH      -0.141500
     25 N19         25.5320    51.6270    -9.3180 nd         1 IKH      -0.626000
     26 H27         26.7250    46.2910   -15.2870 ha         1 IKH       0.149000
     27 H28         27.2440    47.6370   -13.2410 ha         1 IKH       0.135000
     28 H29         22.1970    50.3150   -15.4590 h1         1 IKH       0.035700
     29 H30         21.1610    49.3170   -16.4730 h1         1 IKH       0.035700
     30 H35         28.4520    51.6560    -7.7950 h4         1 IKH       0.161000
     31 H36         29.5520    50.1980    -9.4390 h1         1 IKH       0.058700
     32 H37         28.4410    48.9050    -9.9180 h1         1 IKH       0.058700
     33 H38         28.8380    50.2050   -11.0570 h1         1 IKH       0.058700
     34 H39         23.7420    52.8320    -7.9170 ha         1 IKH       0.119000
     35 H40         22.8700    54.3680    -6.2070 ha         1 IKH       0.111500
     36 H41         24.4080    55.4260    -4.5790 ha         1 IKH       0.111000
     37 H42         26.8330    54.9320    -4.6920 ha         1 IKH       0.111500
     38 H43         27.7090    53.4130    -6.3970 ha         1 IKH       0.119000
     39 H31         20.4630    49.5920   -14.2060 ho         1 IKH       0.446000
     40 H34         22.6250    46.2950   -18.5620 hc         1 IKH       0.051033
     41 H32         21.2280    46.6940   -17.5630 hc         1 IKH       0.051033
     42 H33         21.9730    47.9350   -18.5570 hc         1 IKH       0.051033
     43 C20         28.6580    49.9680   -10.0110 c3         1 IKH       0.056900
@<TRIPOS>BOND
     1     1     2 2   
     2     1     3 1   
     3     1    26 1   
     4     2    17 1   
     5     2    27 1   
     6     3     5 2   
     7     3    19 1   
     8     4     6 1   
     9     4    19 1   
    10     4    20 2   
    11     5    20 1   
    12     6    21 1   
    13     6    28 1   
    14     6    29 1   
    15     7    17 1   
    16     7    23 3   
    17     8    23 1   
    18     8    24 1   
    19     8    25 2   
    20     9    10 2   
    21     9    24 1   
    22     9    30 1   
    23    10    11 1   
    24    10    25 1   
    25    11    12 ar  
    26    11    16 ar  
    27    12    13 ar  
    28    12    34 1   
    29    13    14 ar  
    30    13    35 1   
    31    14    15 ar  
    32    14    36 1   
    33    15    16 ar  
    34    15    37 1   
    35    16    38 1   
    36    17    18 2   
    37    18    19 1   
    38    20    22 1   
    39    21    39 1   
    40    22    40 1   
    41    22    41 1   
    42    22    42 1   
    43    24    43 1   
    44    31    43 1   
    45    32    43 1   
    46    33    43 1   
@<TRIPOS>SUBSTRUCTURE
     1 IKH         1 TEMP              0 ****  ****    0 ROOT
