@<TRIPOS>MOLECULE
IKK
   53    57     1     0     0
SMALL
No Charge or Current Charge


@<TRIPOS>ATOM
      1 C13         94.8290    -4.3780    13.1200 cx         1 IKK      -0.110900
      2 C15         96.5250   -11.2050    10.6680 c5         1 IKK       0.233800
      3 C16         95.1030   -10.5170    12.4520 c5         1 IKK       0.095700
      4 C20         91.4960    -6.8320    15.9860 ca         1 IKK      -0.150000
      5 C21         89.7600    -9.4420    16.1490 ca         1 IKK       0.209000
      6 C22         92.2600    -5.6900    15.6870 ca         1 IKK      -0.093000
      7 C23         96.3600   -10.0440    11.6820 c5         1 IKK      -0.108400
      8 C24         95.6600   -12.9230     8.3720 ca         1 IKK      -0.235000
      9 C25         87.2450    -9.9590    16.9960 ca         1 IKK       0.085900
     10 C26         92.9690   -12.9870     7.8820 ca         1 IKK       0.406900
     11 C27         93.8290   -13.6890     7.0150 ca         1 IKK      -0.009000
     12 C28         95.2070   -13.6580     7.2650 ca         1 IKK      -0.022000
     13 C1          93.0010    -8.1030    14.5630 ca         1 IKK       0.226500
     14 N2          93.7350    -6.9760    14.2760 nb         1 IKK      -0.668000
     15 C3          93.4780    -9.4280    13.9530 c          1 IKK       0.521600
     16 N4          95.1130   -11.4960    10.3060 nh         1 IKK      -0.799300
     17 C5          91.8410    -8.0670    15.4050 ca         1 IKK       0.331000
     18 C6          94.7290   -12.2490     9.1850 ca         1 IKK       0.637900
     19 C7          93.3640    -5.7960    14.8230 ca         1 IKK       0.352300
     20 C8          94.1990    -4.5840    14.4840 cx         1 IKK      -0.190000
     21 N9          93.4050   -12.2770     8.9510 nb         1 IKK      -0.747000
     22 N10         94.5620    -9.3100    13.0970 ns         1 IKK      -0.471900
     23 C12         95.7050    -4.6470    14.3210 cx         1 IKK      -0.110900
     24 C14         94.1510   -10.8950    11.2780 c5         1 IKK       0.220800
     25 O17         92.9720   -10.5220    14.1970 o          1 IKK      -0.640100
     26 N18         87.4620    -8.7450    16.4460 nb         1 IKK      -0.148500
     27 N19         88.1520   -10.9450    17.1510 nb         1 IKK      -0.148500
     28 C30         89.4060   -10.6840    16.7210 ca         1 IKK       0.060400
     29 C31         88.7190    -8.4910    16.0210 ca         1 IKK       0.060400
     30 H1          94.7310    -5.1690    12.3800 hc         1 IKK       0.076200
     31 H2          94.8290    -3.3720    12.7080 hc         1 IKK       0.076200
     32 H3          97.0020   -12.0800    11.1330 h1         1 IKK       0.048700
     33 H4          97.1280   -10.8930     9.8050 h1         1 IKK       0.048700
     34 H5          95.3030   -11.3560    13.1320 h1         1 IKK       0.079700
     35 H6          90.6620    -6.7520    16.6750 ha         1 IKK       0.133000
     36 H7          92.0010    -4.7300    16.1260 ha         1 IKK       0.128000
     37 H8          97.2370    -9.9230    12.3280 hc         1 IKK       0.061200
     38 H9          96.1960    -9.0950    11.1570 hc         1 IKK       0.061200
     39 H10         96.7210   -12.8860     8.5940 ha         1 IKK       0.123000
     40 H11         86.2330   -10.1650    17.3410 h5         1 IKK       0.054100
     41 H12         91.8920   -12.9920     7.7150 h4         1 IKK       0.030100
     42 H13         95.9040   -14.1890     6.6200 ha         1 IKK       0.128000
     43 H14         93.8140    -3.6870    14.9640 hc         1 IKK       0.085700
     44 H15         94.9270    -8.3700    12.9710 hn         1 IKK       0.347500
     45 H17         96.2920    -3.8200    14.7150 hc         1 IKK       0.076200
     46 H18         96.1920    -5.6170    14.3850 hc         1 IKK       0.076200
     47 H19         93.6580   -10.0120    10.8470 h1         1 IKK       0.069700
     48 H20         93.3770   -11.6020    11.6080 h1         1 IKK       0.069700
     49 H21         90.1370   -11.4810    16.8430 h4         1 IKK       0.031100
     50 H22         88.8780    -7.5230    15.5510 h4         1 IKK       0.031100
     51 N11         91.0750    -9.2160    15.6920 nu         1 IKK      -0.972000
     52 Cl29        93.1930   -14.5930     5.6410 cl         1 IKK      -0.197000
     53 H16         91.5650   -10.0750    15.3890 hn         1 IKK       0.546000
@<TRIPOS>BOND
     1     1    20 1   
     2     1    23 1   
     3     1    30 1   
     4     1    31 1   
     5     2     7 1   
     6     2    16 1   
     7     2    32 1   
     8     2    33 1   
     9     3     7 1   
    10     3    22 1   
    11     3    24 1   
    12     3    34 1   
    13     4     6 ar  
    14     4    17 ar  
    15     4    35 1   
    16     5    28 ar  
    17     5    29 ar  
    18     5    51 1   
    19     6    19 ar  
    20     6    36 1   
    21     7    37 1   
    22     7    38 1   
    23     8    12 ar  
    24     8    18 ar  
    25     8    39 1   
    26     9    26 ar  
    27     9    27 ar  
    28     9    40 1   
    29    10    11 ar  
    30    10    21 ar  
    31    10    41 1   
    32    11    12 ar  
    33    11    52 1   
    34    12    42 1   
    35    13    14 ar  
    36    13    15 1   
    37    13    17 ar  
    38    14    19 ar  
    39    15    22 1   
    40    15    25 2   
    41    16    18 1   
    42    16    24 1   
    43    17    51 1   
    44    18    21 ar  
    45    19    20 1   
    46    20    23 1   
    47    20    43 1   
    48    22    44 1   
    49    23    45 1   
    50    23    46 1   
    51    24    47 1   
    52    24    48 1   
    53    26    29 ar  
    54    27    28 ar  
    55    28    49 1   
    56    29    50 1   
    57    51    53 1   
@<TRIPOS>SUBSTRUCTURE
     1 IKK         1 TEMP              0 ****  ****    0 ROOT
