@<TRIPOS>MOLECULE
IKK
   53    57     1     0     0
SMALL
abcg2


@<TRIPOS>ATOM
      1 C13         94.7240    -4.6090    13.1170 cx         1 IKK      -0.110900
      2 C15         96.4580   -11.0260    10.5790 c5         1 IKK       0.233800
      3 C16         94.9610   -10.3650    12.3180 c5         1 IKK       0.095700
      4 C20         91.5550    -6.9200    16.0890 ca         1 IKK      -0.150000
      5 C21         89.7840    -9.3570    16.1910 ca         1 IKK       0.209000
      6 C22         92.3200    -5.8180    15.7930 ca         1 IKK      -0.093000
      7 C23         96.2670    -9.9580    11.6450 c5         1 IKK      -0.108400
      8 C24         95.7780   -12.7480     8.3490 ca         1 IKK      -0.235000
      9 C25         87.2670    -9.6580    17.0500 ca         1 IKK       0.085900
     10 C26         93.1250   -13.1740     7.9330 ca         1 IKK       0.406900
     11 C27         94.0340   -13.7520     7.0690 ca         1 IKK      -0.009000
     12 C28         95.3910   -13.5310     7.2870 ca         1 IKK      -0.022000
     13 C1          92.9240    -8.1810    14.6020 ca         1 IKK       0.226500
     14 N2          93.6470    -7.0980    14.3340 nb         1 IKK      -0.668000
     15 C3          93.3810    -9.4400    13.9350 c          1 IKK       0.521600
     16 N4          95.0990   -11.4060    10.2340 nh         1 IKK      -0.799300
     17 C5          91.8200    -8.1520    15.4730 ca         1 IKK       0.331000
     18 C6          94.7830   -12.1890     9.1810 ca         1 IKK       0.637900
     19 C7          93.3750    -5.9310    14.8820 ca         1 IKK       0.352300
     20 C8          94.2100    -4.7630    14.5240 cx         1 IKK      -0.190000
     21 N9          93.4850   -12.4130     8.9560 nb         1 IKK      -0.747000
     22 N10         94.3660    -9.2770    13.0490 ns         1 IKK      -0.471900
     23 C12         95.6710    -4.9490    14.2140 cx         1 IKK      -0.110900
     24 C14         94.1090   -10.8770    11.1500 c5         1 IKK       0.220800
     25 O17         92.8880   -10.5390    14.1940 o          1 IKK      -0.640100
     26 N18         87.5630    -8.5330    16.4210 nb         1 IKK      -0.148500
     27 N19         88.1050   -10.6600    17.2740 nb         1 IKK      -0.148500
     28 C30         89.3490   -10.5070    16.8550 ca         1 IKK       0.060400
     29 C31         88.8050    -8.3840    15.9860 ca         1 IKK       0.060400
     30 H1          94.4640    -5.3860    12.4090 hc         1 IKK       0.076200
     31 H2          94.7470    -3.6090    12.7030 hc         1 IKK       0.076200
     32 H3          97.0240   -11.8810    10.9650 h1         1 IKK       0.048700
     33 H4          97.0000   -10.6390     9.7130 h1         1 IKK       0.048700
     34 H5          95.1510   -11.1940    13.0050 h1         1 IKK       0.079700
     35 H6          90.7620    -6.8290    16.8200 ha         1 IKK       0.133000
     36 H7          92.1120    -4.8710    16.2740 ha         1 IKK       0.128000
     37 H8          97.1050    -9.9050    12.3380 hc         1 IKK       0.061200
     38 H9          96.1530    -8.9760    11.1760 hc         1 IKK       0.061200
     39 H10         96.8290   -12.5790     8.5340 ha         1 IKK       0.123000
     40 H11         86.2500    -9.7750    17.4060 h5         1 IKK       0.054100
     41 H12         92.0600   -13.3290     7.7930 h4         1 IKK       0.030100
     42 H13         96.1360   -13.9690     6.6360 ha         1 IKK       0.128000
     43 H14         93.9380    -3.8490    15.0390 hc         1 IKK       0.085700
     44 H15         94.6970    -8.3340    12.9000 hn         1 IKK       0.347500
     45 H17         96.3540    -4.1860    14.5630 hc         1 IKK       0.076200
     46 H18         96.0570    -5.9600    14.2570 hc         1 IKK       0.076200
     47 H19         93.5390   -10.0550    10.7030 h1         1 IKK       0.069700
     48 H20         93.3990   -11.6420    11.4620 h1         1 IKK       0.069700
     49 H21         90.0420   -11.3230    17.0350 h4         1 IKK       0.031100
     50 H22         89.0220    -7.4700    15.4450 h4         1 IKK       0.031100
     51 N11         91.0870    -9.2840    15.7420 nu         1 IKK      -0.972000
     52 CL29        93.4930   -14.7320     5.7480 cl         1 IKK      -0.197000
     53 H16         91.5180   -10.1450    15.4210 hn         1 IKK       0.546000
@<TRIPOS>BOND
     1     1    20 1   
     2     1    23 1   
     3     1    30 1   
     4     1    31 1   
     5     2     7 1   
     6     2    16 1   
     7     2    32 1   
     8     2    33 1   
     9     3     7 1   
    10     3    22 1   
    11     3    24 1   
    12     3    34 1   
    13     4     6 ar  
    14     4    17 ar  
    15     4    35 1   
    16     5    28 ar  
    17     5    29 ar  
    18     5    51 1   
    19     6    19 ar  
    20     6    36 1   
    21     7    37 1   
    22     7    38 1   
    23     8    12 ar  
    24     8    18 ar  
    25     8    39 1   
    26     9    26 ar  
    27     9    27 ar  
    28     9    40 1   
    29    10    11 ar  
    30    10    21 ar  
    31    10    41 1   
    32    11    12 ar  
    33    11    52 1   
    34    12    42 1   
    35    13    14 ar  
    36    13    15 1   
    37    13    17 ar  
    38    14    19 ar  
    39    15    22 1   
    40    15    25 2   
    41    16    18 1   
    42    16    24 1   
    43    17    51 1   
    44    18    21 ar  
    45    19    20 1   
    46    20    23 1   
    47    20    43 1   
    48    22    44 1   
    49    23    45 1   
    50    23    46 1   
    51    24    47 1   
    52    24    48 1   
    53    26    29 ar  
    54    27    28 ar  
    55    28    49 1   
    56    29    50 1   
    57    51    53 1   
@<TRIPOS>SUBSTRUCTURE
     1 IKK         1 TEMP              0 ****  ****    0 ROOT
