@<TRIPOS>MOLECULE
IKL
   48    51     1     0     0
SMALL
abcg2


@<TRIPOS>ATOM
      1 C10        -12.7150   -12.1940    47.7050 ca         1 IKL      -0.088000
      2 C13        -12.5550   -15.0200    49.3300 c          1 IKL       0.607100
      3 C20         -9.5430   -16.6620    47.7920 cc         1 IKL      -0.262300
      4 C21         -8.3420   -15.7820    47.7050 c6         1 IKL       0.009900
      5 C22         -7.1160   -16.6440    47.3830 c6         1 IKL      -0.075400
      6 C24         -8.4710   -18.6780    46.6970 c6         1 IKL      -0.118700
      7 C26        -15.4770   -11.9930    47.7000 ca         1 IKL      -0.102500
      8 C02        -16.8250    -9.3240    44.8680 cc         1 IKL       0.263300
      9 N03        -16.3670    -9.8050    46.0060 nd         1 IKL      -0.514800
     10 N04        -15.4020   -10.6760    45.6710 na         1 IKL       0.212000
     11 C05        -15.2380   -10.7740    44.3260 cd         1 IKL      -0.118300
     12 C06        -14.2810   -11.6960    43.6580 c3         1 IKL      -0.030800
     13 C07        -16.1470    -9.9040    43.7760 cc         1 IKL      -0.230000
     14 C08        -14.7370   -11.3930    46.6870 ca         1 IKL       0.026800
     15 C09        -13.3510   -11.4860    46.6970 ca         1 IKL      -0.102500
     16 C11        -13.4430   -12.7990    48.7240 ca         1 IKL      -0.088300
     17 C12        -12.7420   -13.5880    49.8000 c3         1 IKL      -0.111100
     18 O14        -13.4560   -15.8280    49.3380 o          1 IKL      -0.524100
     19 N15        -11.3020   -15.2930    48.8610 ns         1 IKL      -0.484400
     20 C16        -10.8600   -16.4730    48.2970 cc         1 IKL       0.403900
     21 N17        -11.5950   -17.5450    48.1620 nd         1 IKL      -0.362300
     22 O18        -10.7780   -18.4690    47.5570 os         1 IKL      -0.065700
     23 C19         -9.5780   -17.9350    47.3430 cd         1 IKL       0.203300
     24 C23         -7.4020   -17.6620    46.2790 c6         1 IKL      -0.074400
     25 C25        -14.8300   -12.6870    48.7090 ca         1 IKL      -0.088000
     26 H1         -11.6330   -12.2540    47.7040 ha         1 IKL       0.118500
     27 H2          -8.1840   -15.2390    48.6410 hc         1 IKL       0.044700
     28 H3          -8.4860   -15.0240    46.9290 hc         1 IKL       0.044700
     29 H4          -6.8000   -17.1730    48.2870 hc         1 IKL       0.046700
     30 H5          -6.2860   -16.0000    47.0900 hc         1 IKL       0.046700
     31 H6          -8.8310   -19.2440    45.8340 hc         1 IKL       0.071200
     32 H7          -8.0530   -19.4060    47.3980 hc         1 IKL       0.071200
     33 H8         -16.5560   -11.9190    47.6980 ha         1 IKL       0.132500
     34 H9         -18.2570    -8.0710    45.8400 hc         1 IKL       0.047367
     35 H10        -17.5640    -7.3770    44.3730 hc         1 IKL       0.047367
     36 H11        -18.7620    -8.6530    44.2520 hc         1 IKL       0.047367
     37 H12        -13.2560   -11.3260    43.6930 hc         1 IKL       0.052367
     38 H13        -14.2880   -12.6880    44.1090 hc         1 IKL       0.052367
     39 H14        -14.5550   -11.8000    42.6100 hc         1 IKL       0.052367
     40 H15        -16.3080    -9.7210    42.7260 ha         1 IKL       0.144000
     41 H16        -12.7620   -10.9900    45.9370 ha         1 IKL       0.132500
     42 H17        -11.7890   -13.1200    50.0510 hc         1 IKL       0.072200
     43 H18        -13.3450   -13.6110    50.7080 hc         1 IKL       0.072200
     44 H19        -10.6170   -14.5530    48.9100 hn         1 IKL       0.324500
     45 H20         -6.4870   -18.1930    46.0130 hc         1 IKL       0.049200
     46 H21         -7.7340   -17.1380    45.3780 hc         1 IKL       0.049200
     47 H22        -15.4160   -13.1470    49.4950 ha         1 IKL       0.118500
     48 C01        -17.9090    -8.3030    44.8350 c3         1 IKL      -0.119400
@<TRIPOS>BOND
     1     1    15 ar  
     2     1    16 ar  
     3     1    26 1   
     4     2    17 1   
     5     2    18 2   
     6     2    19 1   
     7     3     4 1   
     8     3    20 1   
     9     3    23 2   
    10     4     5 1   
    11     4    27 1   
    12     4    28 1   
    13     5    24 1   
    14     5    29 1   
    15     5    30 1   
    16     6    23 1   
    17     6    24 1   
    18     6    31 1   
    19     6    32 1   
    20     7    14 ar  
    21     7    25 ar  
    22     7    33 1   
    23     8     9 2   
    24     8    13 1   
    25     8    48 1   
    26     9    10 1   
    27    10    11 1   
    28    10    14 1   
    29    11    12 1   
    30    11    13 2   
    31    12    37 1   
    32    12    38 1   
    33    12    39 1   
    34    13    40 1   
    35    14    15 ar  
    36    15    41 1   
    37    16    17 1   
    38    16    25 ar  
    39    17    42 1   
    40    17    43 1   
    41    19    20 1   
    42    19    44 1   
    43    20    21 2   
    44    21    22 1   
    45    22    23 1   
    46    24    45 1   
    47    24    46 1   
    48    25    47 1   
    49    34    48 1   
    50    35    48 1   
    51    36    48 1   
@<TRIPOS>SUBSTRUCTURE
     1 IKL         1 TEMP              0 ****  ****    0 ROOT
