@<TRIPOS>MOLECULE
IKL
   48    51     1     0     0
SMALL
No Charge or Current Charge


@<TRIPOS>ATOM
      1 C10        -12.7620   -12.1640    47.8210 ca         1 IKL      -0.088000
      2 C13        -12.6200   -15.2310    49.2090 c          1 IKL       0.607100
      3 C20         -9.5210   -16.6970    47.7040 cc         1 IKL      -0.262300
      4 C21         -8.4420   -15.6430    47.7330 c6         1 IKL       0.009900
      5 C22         -7.0660   -16.3120    47.4430 c6         1 IKL      -0.075400
      6 C24         -8.1370   -18.5010    46.5880 c6         1 IKL      -0.118700
      7 C26        -15.5670   -12.0830    47.7000 ca         1 IKL      -0.102500
      8 C02        -16.3710    -8.9840    44.7960 cc         1 IKL       0.263300
      9 N03        -15.8440    -9.2120    45.9840 nd         1 IKL      -0.514800
     10 N04        -15.4420   -10.5270    45.8390 na         1 IKL       0.212000
     11 C05        -15.7100   -11.1080    44.5950 cd         1 IKL      -0.118300
     12 C06        -15.3860   -12.5170    44.1620 c3         1 IKL      -0.030800
     13 C07        -16.3170   -10.0900    43.9240 cc         1 IKL      -0.230000
     14 C08        -14.8070   -11.3170    46.7970 ca         1 IKL       0.026800
     15 C09        -13.4020   -11.3590    46.8620 ca         1 IKL      -0.102500
     16 C11        -13.5210   -12.9320    48.7240 ca         1 IKL      -0.088300
     17 C12        -12.8280   -13.8150    49.7580 c3         1 IKL      -0.111100
     18 O14        -13.5250   -16.0520    49.1860 o          1 IKL      -0.524100
     19 N15        -11.3490   -15.4770    48.7340 ns         1 IKL      -0.484400
     20 C16        -10.8470   -16.6210    48.1570 cc         1 IKL       0.403900
     21 N17        -11.5270   -17.7420    47.9630 nd         1 IKL      -0.362300
     22 O18        -10.5720   -18.6260    47.3280 os         1 IKL      -0.065700
     23 C19         -9.3960   -17.9400    47.1980 cd         1 IKL       0.203300
     24 C23         -7.1420   -17.3440    46.2770 c6         1 IKL      -0.074400
     25 C25        -14.9270   -12.8870    48.6590 ca         1 IKL      -0.088000
     26 H1         -11.6750   -12.1880    47.8570 ha         1 IKL       0.118500
     27 H2          -8.4070   -15.1260    48.7020 hc         1 IKL       0.044700
     28 H3          -8.6440   -14.8750    46.9720 hc         1 IKL       0.044700
     29 H4          -6.7110   -16.8210    48.3500 hc         1 IKL       0.046700
     30 H5          -6.3210   -15.5380    47.2130 hc         1 IKL       0.046700
     31 H6          -8.3640   -19.0640    45.6730 hc         1 IKL       0.071200
     32 H7          -7.6750   -19.2090    47.2880 hc         1 IKL       0.071200
     33 H8         -16.6540   -12.0560    47.6550 ha         1 IKL       0.132500
     34 H9         -16.9220    -6.9380    45.2060 hc         1 IKL       0.047367
     35 H10        -16.4580    -7.2550    43.5240 hc         1 IKL       0.047367
     36 H11        -18.0350    -7.8010    44.1270 hc         1 IKL       0.047367
     37 H12        -14.3060   -12.7030    44.2000 hc         1 IKL       0.052367
     38 H13        -15.8790   -13.2530    44.8080 hc         1 IKL       0.052367
     39 H14        -15.7200   -12.7000    43.1340 hc         1 IKL       0.052367
     40 H15        -16.6960   -10.1050    42.9070 ha         1 IKL       0.144000
     41 H16        -12.8080   -10.7690    46.1670 ha         1 IKL       0.132500
     42 H17        -11.8600   -13.3690    50.0160 hc         1 IKL       0.072200
     43 H18        -13.4470   -13.8770    50.6600 hc         1 IKL       0.072200
     44 H19        -10.7140   -14.6970    48.8140 hn         1 IKL       0.324500
     45 H20         -6.1440   -17.7560    46.0720 hc         1 IKL       0.049200
     46 H21         -7.4570   -16.8270    45.3590 hc         1 IKL       0.049200
     47 H22        -15.5260   -13.4790    49.3480 ha         1 IKL       0.118500
     48 C01        -16.9790    -7.6720    44.3930 c3         1 IKL      -0.119400
@<TRIPOS>BOND
     1     1    15 ar  
     2     1    16 ar  
     3     1    26 1   
     4     2    17 1   
     5     2    18 2   
     6     2    19 1   
     7     3     4 1   
     8     3    20 1   
     9     3    23 2   
    10     4     5 1   
    11     4    27 1   
    12     4    28 1   
    13     5    24 1   
    14     5    29 1   
    15     5    30 1   
    16     6    23 1   
    17     6    24 1   
    18     6    31 1   
    19     6    32 1   
    20     7    14 ar  
    21     7    25 ar  
    22     7    33 1   
    23     8     9 2   
    24     8    13 1   
    25     8    48 1   
    26     9    10 1   
    27    10    11 1   
    28    10    14 1   
    29    11    12 1   
    30    11    13 2   
    31    12    37 1   
    32    12    38 1   
    33    12    39 1   
    34    13    40 1   
    35    14    15 ar  
    36    15    41 1   
    37    16    17 1   
    38    16    25 ar  
    39    17    42 1   
    40    17    43 1   
    41    19    20 1   
    42    19    44 1   
    43    20    21 2   
    44    21    22 1   
    45    22    23 1   
    46    24    45 1   
    47    24    46 1   
    48    25    47 1   
    49    34    48 1   
    50    35    48 1   
    51    36    48 1   
@<TRIPOS>SUBSTRUCTURE
     1 IKL         1 TEMP              0 ****  ****    0 ROOT
