@<TRIPOS>MOLECULE
IKM
   32    34     1     0     0
SMALL
bcc


@<TRIPOS>ATOM
      1 C1           3.7660    -0.9470    -1.1140 c6         1 IKM       0.210000
      2 C2           2.9930    -1.0150     1.2340 c2         1 IKM      -0.106200
      3 C3           3.8570    -1.4090     0.3050 c2         1 IKM      -0.212200
      4 C4           2.0390     0.5920    -0.4580 c5         1 IKM       0.143500
      5 C5           1.9440     0.0130     0.9490 c5         1 IKM       0.176300
      6 O1           0.6410    -0.5320     1.0780 os         1 IKM      -0.369600
      7 N2          -0.6310     2.0980     0.9360 ns         1 IKM      -0.517900
      8 C6          -1.3330     0.8450     0.7520 c5         1 IKM      -0.055300
      9 C7          -0.2450    -0.0260     0.0810 c5         1 IKM       0.214800
     10 C8           0.5960     1.0060    -0.6920 c5         1 IKM      -0.181700
     11 C9           0.2910     2.3290    -0.0100 c          1 IKM       0.714500
     12 O2           0.8390     3.3950    -0.2460 o          1 IKM      -0.732500
     13 C10         -0.7820    -1.1670    -0.7640 c3         1 IKM      -0.195400
     14 C11         -2.5530     1.0430    -0.1820 c          1 IKM       0.917600
     15 O3          -3.5880     0.4120     0.0950 o          1 IKM      -0.827300
     16 C12         -1.6860    -2.1950    -0.0610 c          1 IKM       0.955600
     17 O4          -2.3250    -2.9500    -0.8260 o          1 IKM      -0.859300
     18 O5          -1.6930    -2.2350     1.1830 o          1 IKM      -0.859300
     19 O6          -2.3740     1.8120    -1.1470 o          1 IKM      -0.827300
     20 N1           2.4390    -0.4400    -1.3930 n7         1 IKM      -0.776200
     21 H1           4.5650    -0.2070    -1.2980 h1         1 IKM       0.007700
     22 H2           3.9740    -1.7860    -1.7820 h1         1 IKM       0.007700
     23 H3           3.0700    -1.3870     2.2500 ha         1 IKM       0.114000
     24 H4           4.6620    -2.0910     0.5550 ha         1 IKM       0.095000
     25 H5           2.7200     1.4570    -0.4690 h1         1 IKM       0.025700
     26 H6           2.0710     0.8320     1.6730 h1         1 IKM       0.027700
     27 H7          -1.0700     2.8710     1.4140 hn         1 IKM       0.287500
     28 H8          -1.6340     0.4140     1.7050 h1         1 IKM       0.097700
     29 H9           0.3440     1.0750    -1.7520 hc         1 IKM       0.101700
     30 H10         -1.3150    -0.7600    -1.6270 hc         1 IKM       0.038200
     31 H11          0.0830    -1.6920    -1.1840 hc         1 IKM       0.038200
     32 H14          2.4050    -0.0710    -2.3360 hn         1 IKM       0.347800
@<TRIPOS>BOND
     1     1     3 1   
     2     1    20 1   
     3     1    21 1   
     4     1    22 1   
     5     2     3 2   
     6     2     5 1   
     7     2    23 1   
     8     3    24 1   
     9     4     5 1   
    10     4    10 1   
    11     4    20 1   
    12     4    25 1   
    13     5     6 1   
    14     5    26 1   
    15     6     9 1   
    16     7     8 1   
    17     7    11 1   
    18     7    27 1   
    19     8     9 1   
    20     8    14 1   
    21     8    28 1   
    22     9    10 1   
    23     9    13 1   
    24    10    11 1   
    25    10    29 1   
    26    11    12 2   
    27    13    16 1   
    28    13    30 1   
    29    13    31 1   
    30    14    15 1   
    31    14    19 1   
    32    16    17 1   
    33    16    18 1   
    34    20    32 1   
@<TRIPOS>SUBSTRUCTURE
     1 IKM         1 TEMP              0 ****  ****    0 ROOT
