@<TRIPOS>MOLECULE
IKM
   32    34     1     0     0
SMALL
No Charge or Current Charge


@<TRIPOS>ATOM
      1 C1           3.9280    -0.8990    -0.9140 c6         1 IKM       0.210000
      2 C2           2.9420    -0.9130     1.4260 c2         1 IKM      -0.156200
      3 C3           3.8720    -1.3300     0.5430 c2         1 IKM      -0.262200
      4 C4           2.0670     0.6190    -0.4440 c5         1 IKM       0.143500
      5 C5           1.8250     0.0400     0.9920 c5         1 IKM       0.199500
      6 O1           0.6230    -0.7430     0.8570 os         1 IKM      -0.416000
      7 N2          -0.5840     2.1030     0.7740 ns         1 IKM      -0.450900
      8 C6          -1.2610     0.7890     0.7330 c5         1 IKM      -0.055300
      9 C7          -0.2710    -0.1160    -0.1050 c5         1 IKM       0.238000
     10 C8           0.6090     0.9380    -0.8660 c5         1 IKM      -0.181700
     11 C9           0.2590     2.3040    -0.2820 c          1 IKM       0.572000
     12 O2           0.5660     3.4120    -0.6950 o          1 IKM      -0.657000
     13 C10         -0.8540    -1.2470    -1.0020 c3         1 IKM      -0.195400
     14 C11         -2.6400     1.0510     0.0340 c          1 IKM       0.707000
     15 O3          -3.6490     1.0180     0.7250 o          1 IKM      -0.722000
     16 C12         -1.6180    -2.2910    -0.1770 c          1 IKM       0.745000
     17 O4          -2.8120    -2.1180     0.0100 o          1 IKM      -0.754000
     18 O5          -1.0220    -3.2840     0.2160 o          1 IKM      -0.754000
     19 O6          -2.6790     1.4340    -1.1290 o          1 IKM      -0.722000
     20 N1           2.6070    -0.4320    -1.3580 n7         1 IKM      -0.831400
     21 H1           4.6610    -0.0870    -1.0290 h1         1 IKM       0.007700
     22 H2           4.2500    -1.7390    -1.5460 h1         1 IKM       0.007700
     23 H3           2.9740    -1.2660     2.4570 ha         1 IKM       0.164000
     24 H4           4.6590    -2.0150     0.8580 ha         1 IKM       0.145000
     25 H5           2.7170     1.5050    -0.4370 h1         1 IKM       0.025700
     26 H6           1.6530     0.8370     1.7290 h1         1 IKM       0.027700
     27 H7          -0.9560     2.9240     1.2360 hn         1 IKM       0.287500
     28 H8          -1.4520     0.3710     1.7280 h1         1 IKM       0.097700
     29 H9           0.4810     0.9730    -1.9510 hc         1 IKM       0.101700
     30 H10         -1.5290    -0.7740    -1.7210 hc         1 IKM       0.038200
     31 H11          0.0040    -1.7260    -1.4870 hc         1 IKM       0.038200
     32 H14          2.6990    -0.0540    -2.3070 hn         1 IKM       0.403000
@<TRIPOS>BOND
     1     1     3 1   
     2     1    20 1   
     3     1    21 1   
     4     1    22 1   
     5     2     3 2   
     6     2     5 1   
     7     2    23 1   
     8     3    24 1   
     9     4     5 1   
    10     4    10 1   
    11     4    20 1   
    12     4    25 1   
    13     5     6 1   
    14     5    26 1   
    15     6     9 1   
    16     7     8 1   
    17     7    11 1   
    18     7    27 1   
    19     8     9 1   
    20     8    14 1   
    21     8    28 1   
    22     9    10 1   
    23     9    13 1   
    24    10    11 1   
    25    10    29 1   
    26    11    12 2   
    27    13    16 1   
    28    13    30 1   
    29    13    31 1   
    30    14    15 1   
    31    14    19 1   
    32    16    17 1   
    33    16    18 1   
    34    20    32 1   
@<TRIPOS>SUBSTRUCTURE
     1 IKM         1 TEMP              0 ****  ****    0 ROOT
