@<TRIPOS>MOLECULE
IKO
   46    49     1     0     0
SMALL
abcg2


@<TRIPOS>ATOM
      1 C02         92.7660    -9.5340    12.7660 cc         1 IKO       0.526300
      2 C05         93.8500   -13.3300     8.5160 cc         1 IKO       0.771900
      3 C10         93.1200   -10.1560    11.4610 c3         1 IKO      -0.078700
      4 C11         92.4120    -7.3830    16.5300 cc         1 IKO       0.280900
      5 C13         90.9290    -8.9660    15.7140 cd         1 IKO       0.396300
      6 C16         91.7540    -9.1090    14.5730 cd         1 IKO      -0.112000
      7 C19         94.5180    -6.6750    15.2840 c3         1 IKO      -0.041800
      8 C20         89.6790    -9.7740    15.8400 c3         1 IKO      -0.139400
      9 C21         91.9260   -14.2860     7.4040 c3         1 IKO       0.206100
     10 C22         94.1260   -14.2390     6.3170 cx         1 IKO       0.147500
     11 C23         94.1560   -15.5440     5.5780 cx         1 IKO      -0.122900
     12 C24         95.3890   -15.0440     6.2830 cx         1 IKO      -0.122900
     13 N01         93.3760   -14.1800     7.5400 nh         1 IKO      -0.721300
     14 C03         93.9550   -12.2440    10.3350 cd         1 IKO       0.451800
     15 N04         93.1370   -13.0350     9.6420 nc         1 IKO      -0.739000
     16 N06         95.0490   -12.7570     8.4700 nd         1 IKO      -0.588800
     17 N07         95.0980   -12.0720     9.6570 na         1 IKO      -0.074700
     18 C08         96.2670   -11.2840     9.9820 c3         1 IKO       0.078900
     19 C09         93.6270   -11.6040    11.6390 c3         1 IKO      -0.107700
     20 N12         91.2730    -8.1150    16.6570 nc         1 IKO      -0.645000
     21 C14         93.2660    -7.4550    15.4620 cd         1 IKO      -0.086300
     22 N15         92.8940    -8.3430    14.4930 na         1 IKO       0.299400
     23 N17         91.6660    -9.8700    13.4770 nc         1 IKO      -0.378300
     24 N18         93.5460    -8.6110    13.3400 nd         1 IKO      -0.595100
     25 H31         92.2390   -10.1630    10.8170 hc         1 IKO       0.071700
     26 H30         93.8850    -9.5480    10.9780 hc         1 IKO       0.071700
     27 H32         92.6420    -6.7010    17.3370 h4         1 IKO       0.039100
     28 H34         95.3770    -7.3430    15.1880 hc         1 IKO       0.064700
     29 H33         94.4710    -6.0720    14.3750 hc         1 IKO       0.064700
     30 H35         94.6680    -6.0210    16.1400 hc         1 IKO       0.064700
     31 H37         89.1800    -9.5390    16.7770 hc         1 IKO       0.065367
     32 H38         89.0020    -9.5670    15.0080 hc         1 IKO       0.065367
     33 H36         89.9070   -10.8420    15.8100 hc         1 IKO       0.065367
     34 H40         91.7010   -15.1270     6.7520 h1         1 IKO       0.042367
     35 H41         91.4740   -14.4630     8.3760 h1         1 IKO       0.042367
     36 H39         91.4860   -13.3780     6.9720 h1         1 IKO       0.042367
     37 H42         94.1060   -13.3320     5.7140 h1         1 IKO       0.070700
     38 H44         93.6300   -16.3770     6.0250 hc         1 IKO       0.076700
     39 H43         94.1240   -15.5100     4.4970 hc         1 IKO       0.076700
     40 H45         96.2120   -14.6650     5.6900 hc         1 IKO       0.076700
     41 H46         95.6740   -15.5400     7.2000 hc         1 IKO       0.076700
     42 H25         97.1560   -11.9090     9.9160 h1         1 IKO       0.056367
     43 H26         96.3600   -10.4480     9.2880 h1         1 IKO       0.056367
     44 H27         96.1710   -10.9010    10.9940 h1         1 IKO       0.056367
     45 H29         92.8550   -12.2020    12.1200 hc         1 IKO       0.074700
     46 H28         94.5000   -11.6050    12.2930 hc         1 IKO       0.074700
@<TRIPOS>BOND
     1     1     3 1   
     2     1    23 1   
     3     1    24 2   
     4     2    13 1   
     5     2    15 1   
     6     2    16 2   
     7     3    19 1   
     8     3    25 1   
     9     3    26 1   
    10     4    20 1   
    11     4    21 2   
    12     4    27 1   
    13     5     6 1   
    14     5     8 1   
    15     5    20 2   
    16     6    22 1   
    17     6    23 2   
    18     7    21 1   
    19     7    28 1   
    20     7    29 1   
    21     7    30 1   
    22     8    31 1   
    23     8    32 1   
    24     8    33 1   
    25     9    13 1   
    26     9    34 1   
    27     9    35 1   
    28     9    36 1   
    29    10    11 1   
    30    10    12 1   
    31    10    13 1   
    32    10    37 1   
    33    11    12 1   
    34    11    38 1   
    35    11    39 1   
    36    12    40 1   
    37    12    41 1   
    38    14    15 2   
    39    14    17 1   
    40    14    19 1   
    41    16    17 1   
    42    17    18 1   
    43    18    42 1   
    44    18    43 1   
    45    18    44 1   
    46    19    45 1   
    47    19    46 1   
    48    21    22 1   
    49    22    24 1   
@<TRIPOS>SUBSTRUCTURE
     1 IKO         1 TEMP              0 ****  ****    0 ROOT
