@<TRIPOS>MOLECULE
IKO
   46    49     1     0     0
SMALL
No Charge or Current Charge


@<TRIPOS>ATOM
      1 C02         92.7440    -9.5080    12.7850 cc         1 IKO       0.526300
      2 C05         93.9390   -13.0910     8.3660 cc         1 IKO       0.771900
      3 C10         93.0200   -10.1090    11.4350 c3         1 IKO      -0.078700
      4 C11         92.4110    -7.5840    16.6440 cc         1 IKO       0.280900
      5 C13         90.8050    -8.9510    15.6510 cd         1 IKO       0.396300
      6 C16         91.6890    -9.0960    14.5450 cd         1 IKO      -0.112000
      7 C19         94.6750    -7.0060    15.5590 c3         1 IKO      -0.041800
      8 C20         89.4570    -9.6170    15.7080 c3         1 IKO      -0.139400
      9 C21         91.9440   -14.3210     7.6290 c3         1 IKO       0.206100
     10 C22         94.0780   -14.3720     6.2280 cx         1 IKO       0.147500
     11 C23         94.1140   -15.8280     5.8220 cx         1 IKO      -0.122900
     12 C24         95.3660   -15.1570     6.3230 cx         1 IKO      -0.122900
     13 N01         93.3690   -13.9500     7.4500 nh         1 IKO      -0.721300
     14 C03         94.0700   -12.0400    10.1520 cd         1 IKO       0.451800
     15 N04         93.2700   -12.8730     9.5250 nc         1 IKO      -0.739000
     16 N06         95.0900   -12.4760     8.1860 nd         1 IKO      -0.588800
     17 N07         95.1820   -11.7770     9.3610 na         1 IKO      -0.074700
     18 C08         96.3240   -10.8980     9.6650 c3         1 IKO       0.078900
     19 C09         93.7760   -11.4590    11.5100 c3         1 IKO      -0.107700
     20 N12         91.1600    -8.2020    16.6940 nc         1 IKO      -0.645000
     21 C14         93.3240    -7.6850    15.5910 cd         1 IKO      -0.086300
     22 N15         92.8930    -8.4800    14.5330 na         1 IKO       0.299400
     23 N17         91.5550    -9.7740    13.4230 nc         1 IKO      -0.378300
     24 N18         93.6140    -8.7210    13.4070 nd         1 IKO      -0.595100
     25 H31         92.0740   -10.2540    10.8990 hc         1 IKO       0.071700
     26 H30         93.6040    -9.3980    10.8380 hc         1 IKO       0.071700
     27 H32         92.6350    -6.9920    17.5220 h4         1 IKO       0.039100
     28 H34         95.4840    -7.7420    15.4750 hc         1 IKO       0.064700
     29 H33         94.7530    -6.3220    14.7060 hc         1 IKO       0.064700
     30 H35         94.8530    -6.4220    16.4700 hc         1 IKO       0.064700
     31 H37         88.9270    -9.3930    16.6410 hc         1 IKO       0.065367
     32 H38         88.8280    -9.2830    14.8760 hc         1 IKO       0.065367
     33 H36         89.5620   -10.7050    15.6340 hc         1 IKO       0.065367
     34 H40         91.5710   -14.8720     6.7550 h1         1 IKO       0.042367
     35 H41         91.8180   -14.9610     8.5120 h1         1 IKO       0.042367
     36 H39         91.3200   -13.4250     7.7510 h1         1 IKO       0.042367
     37 H42         94.0220   -13.6390     5.4220 h1         1 IKO       0.070700
     38 H44         93.6360   -16.5540     6.4750 hc         1 IKO       0.076700
     39 H43         94.0480   -16.0540     4.7610 hc         1 IKO       0.076700
     40 H45         96.1460   -14.9290     5.6010 hc         1 IKO       0.076700
     41 H46         95.7250   -15.4280     7.3130 hc         1 IKO       0.076700
     42 H25         96.8720   -11.2940    10.5290 h1         1 IKO       0.056367
     43 H26         97.0000   -10.8460     8.8030 h1         1 IKO       0.056367
     44 H27         95.9610    -9.8890     9.8980 h1         1 IKO       0.056367
     45 H29         93.1800   -12.1720    12.0920 hc         1 IKO       0.074700
     46 H28         94.7120   -11.3200    12.0640 hc         1 IKO       0.074700
@<TRIPOS>BOND
     1     1     3 1   
     2     1    23 1   
     3     1    24 2   
     4     2    13 1   
     5     2    15 1   
     6     2    16 2   
     7     3    19 1   
     8     3    25 1   
     9     3    26 1   
    10     4    20 1   
    11     4    21 2   
    12     4    27 1   
    13     5     6 1   
    14     5     8 1   
    15     5    20 2   
    16     6    22 1   
    17     6    23 2   
    18     7    21 1   
    19     7    28 1   
    20     7    29 1   
    21     7    30 1   
    22     8    31 1   
    23     8    32 1   
    24     8    33 1   
    25     9    13 1   
    26     9    34 1   
    27     9    35 1   
    28     9    36 1   
    29    10    11 1   
    30    10    12 1   
    31    10    13 1   
    32    10    37 1   
    33    11    12 1   
    34    11    38 1   
    35    11    39 1   
    36    12    40 1   
    37    12    41 1   
    38    14    15 2   
    39    14    17 1   
    40    14    19 1   
    41    16    17 1   
    42    17    18 1   
    43    18    42 1   
    44    18    43 1   
    45    18    44 1   
    46    19    45 1   
    47    19    46 1   
    48    21    22 1   
    49    22    24 1   
@<TRIPOS>SUBSTRUCTURE
     1 IKO         1 TEMP              0 ****  ****    0 ROOT
