@<TRIPOS>MOLECULE
IKQ
   44    46     1     0     0
SMALL
abcg2


@<TRIPOS>ATOM
      1 C10          6.5920     5.9940    18.7610 c2         1 IKQ      -0.244200
      2 C11          6.3010     7.6670    23.3590 c6         1 IKQ      -0.074400
      3 C13          2.8140     3.9680    19.6860 ca         1 IKQ      -0.113000
      4 C15          2.0120     4.4990    18.6830 ca         1 IKQ      -0.114000
      5 C16          5.7700     5.4870    16.4690 c6         1 IKQ      -0.087200
      6 C18          6.0110     5.7820    15.0280 c2         1 IKQ       0.166900
      7 C19          7.1960     7.8120    15.6630 c          1 IKQ       0.687300
      8 C20          6.7310     6.8620    14.6680 ce         1 IKQ      -0.464200
      9 C1           4.3630     7.1010    21.1950 c6         1 IKQ      -0.011400
     10 C2           5.8730     6.8250    21.0070 c6         1 IKQ      -0.028500
     11 C3           3.5240     6.1900    20.3350 ca         1 IKQ      -0.071300
     12 C4           3.9730     7.0140    22.6740 c6         1 IKQ      -0.067400
     13 C5           6.2470     6.9890    19.5690 c2         1 IKQ      -0.163200
     14 C6           6.7030     7.7590    21.8930 c6         1 IKQ      -0.070400
     15 C7           2.7110     6.7090    19.3310 ca         1 IKQ      -0.107000
     16 C8           3.5590     4.8060    20.5030 ca         1 IKQ      -0.107000
     17 C9           4.8140     7.9500    23.5340 c6         1 IKQ      -0.076400
     18 C12          1.9600     5.8750    18.5110 ca         1 IKQ      -0.113000
     19 C14          6.8860     6.1060    17.3020 c6         1 IKQ       0.236500
     20 O17          7.0820     7.4750    16.9590 os         1 IKQ      -0.448100
     21 O22          7.6480     8.9020    15.3970 o          1 IKQ      -0.503000
     22 H34          6.6340     4.9780    19.1430 ha         1 IKQ       0.177000
     23 H36          6.8940     8.3660    23.9530 hc         1 IKQ       0.040700
     24 H38          2.8620     2.8960    19.8300 ha         1 IKQ       0.111500
     25 H40          1.4320     3.8460    18.0430 ha         1 IKQ       0.112000
     26 H42          5.7510     4.4100    16.6400 hc         1 IKQ       0.088200
     27 H41          4.7920     5.8790    16.7680 hc         1 IKQ       0.088200
     28 H43          6.9030     7.1150    13.6290 ha         1 IKQ       0.209000
     29 H23          4.1800     8.1330    20.8660 hc         1 IKQ       0.054700
     30 H24          6.0710     5.7920    21.3200 hc         1 IKQ       0.050700
     31 H26          2.9120     7.2510    22.7830 hc         1 IKQ       0.043200
     32 H25          4.1010     5.9850    23.0240 hc         1 IKQ       0.043200
     33 H27          6.2010     8.0070    19.1900 ha         1 IKQ       0.190000
     34 H28          7.7630     7.5220    21.7730 hc         1 IKQ       0.045200
     35 H29          6.5720     8.7900    21.5440 hc         1 IKQ       0.045200
     36 H30          2.6700     7.7820    19.1820 ha         1 IKQ       0.111500
     37 H31          4.1810     4.3700    21.2760 ha         1 IKQ       0.111500
     38 H33          4.6080     8.9870    23.2480 hc         1 IKQ       0.041200
     39 H32          4.5260     7.8530    24.5840 hc         1 IKQ       0.041200
     40 H37          1.3370     6.3030    17.7360 ha         1 IKQ       0.111500
     41 H39          7.8120     5.5600    17.0770 h1         1 IKQ       0.054700
     42 H44          5.5910     5.1910    13.2710 ho         1 IKQ       0.479000
     43 O21          5.4420     4.9290    14.1910 oh         1 IKQ      -0.517100
     44 H35          6.5280     6.6650    23.7380 hc         1 IKQ       0.040700
@<TRIPOS>BOND
     1     1    13 2   
     2     1    19 1   
     3     1    22 1   
     4     2    14 1   
     5     2    17 1   
     6     2    23 1   
     7     2    44 1   
     8     3     4 ar  
     9     3    16 ar  
    10     3    24 1   
    11     4    18 ar  
    12     4    25 1   
    13     5     6 1   
    14     5    19 1   
    15     5    26 1   
    16     5    27 1   
    17     6     8 2   
    18     6    43 1   
    19     7     8 1   
    20     7    20 1   
    21     7    21 2   
    22     8    28 1   
    23     9    10 1   
    24     9    11 1   
    25     9    12 1   
    26     9    29 1   
    27    10    13 1   
    28    10    14 1   
    29    10    30 1   
    30    11    15 ar  
    31    11    16 ar  
    32    12    17 1   
    33    12    31 1   
    34    12    32 1   
    35    13    33 1   
    36    14    34 1   
    37    14    35 1   
    38    15    18 ar  
    39    15    36 1   
    40    16    37 1   
    41    17    38 1   
    42    17    39 1   
    43    18    40 1   
    44    19    20 1   
    45    19    41 1   
    46    42    43 1   
@<TRIPOS>SUBSTRUCTURE
     1 IKQ         1 TEMP              0 ****  ****    0 ROOT
