@<TRIPOS>MOLECULE
IKQ
   44    46     1     0     0
SMALL
No Charge or Current Charge


@<TRIPOS>ATOM
      1 C10          6.5660     5.8840    18.7850 c2         1 IKQ      -0.244200
      2 C11          6.2580     7.8720    23.3290 c6         1 IKQ      -0.074400
      3 C13          2.9600     3.7180    19.7810 ca         1 IKQ      -0.113000
      4 C15          2.1570     4.1720    18.7220 ca         1 IKQ      -0.114000
      5 C16          5.4670     5.9800    16.5160 c6         1 IKQ      -0.087200
      6 C18          5.7590     6.2330    15.0620 c2         1 IKQ       0.166900
      7 C19          7.8600     7.4090    15.6420 c          1 IKQ       0.687300
      8 C20          6.8580     6.8910    14.6750 ce         1 IKQ      -0.464200
      9 C1           4.3370     7.0410    21.1830 c6         1 IKQ      -0.011400
     10 C2           5.8760     6.8750    21.0020 c6         1 IKQ      -0.028500
     11 C3           3.5510     6.0240    20.3360 ca         1 IKQ      -0.071300
     12 C4           3.9540     6.9690    22.6880 c6         1 IKQ      -0.067400
     13 C5           6.2480     6.9580    19.5280 c2         1 IKQ      -0.163200
     14 C6           6.6470     7.9360    21.8310 c6         1 IKQ      -0.070400
     15 C7           2.7420     6.4710    19.2700 ca         1 IKQ      -0.107000
     16 C8           3.6550     4.6390    20.5840 ca         1 IKQ      -0.107000
     17 C9           4.7280     8.0240    23.5170 c6         1 IKQ      -0.076400
     18 C12          2.0490     5.5490    18.4670 ca         1 IKQ      -0.113000
     19 C14          6.7970     5.9250    17.2860 c6         1 IKQ       0.236500
     20 O17          7.6450     7.0400    16.9470 os         1 IKQ      -0.448100
     21 O22          8.7910     8.1210    15.3050 o          1 IKQ      -0.503000
     22 H34          6.6040     4.8900    19.2330 ha         1 IKQ       0.177000
     23 H36          6.7820     8.6610    23.8850 hc         1 IKQ       0.040700
     24 H38          3.0480     2.6510    19.9780 ha         1 IKQ       0.111500
     25 H40          1.6220     3.4590    18.1000 ha         1 IKQ       0.112000
     26 H42          4.9170     5.0390    16.6500 hc         1 IKQ       0.088200
     27 H41          4.8320     6.7830    16.9100 hc         1 IKQ       0.088200
     28 H43          7.0650     7.1110    13.6310 ha         1 IKQ       0.209000
     29 H23          4.0730     8.0490    20.8320 hc         1 IKQ       0.054700
     30 H24          6.1630     5.8820    21.3770 hc         1 IKQ       0.050700
     31 H26          2.8740     7.1290    22.8040 hc         1 IKQ       0.043200
     32 H25          4.1650     5.9670    23.0870 hc         1 IKQ       0.043200
     33 H27          6.1790     7.9470    19.0700 ha         1 IKQ       0.190000
     34 H28          7.7290     7.7780    21.7240 hc         1 IKQ       0.045200
     35 H29          6.4390     8.9420    21.4400 hc         1 IKQ       0.045200
     36 H30          2.6560     7.5330    19.0560 ha         1 IKQ       0.111500
     37 H31          4.2820     4.2720    21.3930 ha         1 IKQ       0.111500
     38 H33          4.4170     9.0330    23.2160 hc         1 IKQ       0.041200
     39 H32          4.4720     7.9230    24.5810 hc         1 IKQ       0.041200
     40 H37          1.4300     5.9020    17.6450 ha         1 IKQ       0.111500
     41 H39          7.3250     5.0070    16.9850 h1         1 IKQ       0.054700
     42 H44          5.1310     6.0040    13.3080 ho         1 IKQ       0.479000
     43 O21          4.8320     5.7760    14.2140 oh         1 IKQ      -0.517100
     44 H35          6.5900     6.9160    23.7570 hc         1 IKQ       0.040700
@<TRIPOS>BOND
     1     1    13 2   
     2     1    19 1   
     3     1    22 1   
     4     2    14 1   
     5     2    17 1   
     6     2    23 1   
     7     2    44 1   
     8     3     4 ar  
     9     3    16 ar  
    10     3    24 1   
    11     4    18 ar  
    12     4    25 1   
    13     5     6 1   
    14     5    19 1   
    15     5    26 1   
    16     5    27 1   
    17     6     8 2   
    18     6    43 1   
    19     7     8 1   
    20     7    20 1   
    21     7    21 2   
    22     8    28 1   
    23     9    10 1   
    24     9    11 1   
    25     9    12 1   
    26     9    29 1   
    27    10    13 1   
    28    10    14 1   
    29    10    30 1   
    30    11    15 ar  
    31    11    16 ar  
    32    12    17 1   
    33    12    31 1   
    34    12    32 1   
    35    13    33 1   
    36    14    34 1   
    37    14    35 1   
    38    15    18 ar  
    39    15    36 1   
    40    16    37 1   
    41    17    38 1   
    42    17    39 1   
    43    18    40 1   
    44    19    20 1   
    45    19    41 1   
    46    42    43 1   
@<TRIPOS>SUBSTRUCTURE
     1 IKQ         1 TEMP              0 ****  ****    0 ROOT
