@<TRIPOS>MOLECULE
IKR
   45    46     1     0     0
SMALL
No Charge or Current Charge


@<TRIPOS>ATOM
      1 C1           3.3070     0.5330    -0.4360 ca         1 IKR       0.163000
      2 C2           2.3350    -0.3170    -1.0070 ca         1 IKR      -0.006300
      3 C3           0.9690    -0.0110    -0.8400 ca         1 IKR      -0.204000
      4 C4           0.5720     1.1320    -0.1100 ca         1 IKR       0.162100
      5 C5           1.5500     1.9760     0.4570 ca         1 IKR      -0.111300
      6 C6           2.9140     1.6680     0.2890 ca         1 IKR      -0.048000
      7 C11          1.1420     3.2150     1.2480 c3         1 IKR      -0.033800
      8 O15         -0.7580     1.4580     0.0710 os         1 IKR      -0.342100
      9 C16         -1.8300     0.6680    -0.4730 c3         1 IKR       0.205900
     10 C17         -3.1730     1.3110    -0.1060 ca         1 IKR      -0.050300
     11 C20         -4.2850     0.5390     0.3350 ca         1 IKR      -0.137900
     12 C21         -5.4890     1.1930     0.6740 ca         1 IKR      -0.072000
     13 C22         -5.6020     2.5880     0.5750 ca         1 IKR      -0.108000
     14 C23         -4.5120     3.3480     0.1290 ca         1 IKR      -0.099000
     15 C24         -3.3080     2.7130    -0.2110 ca         1 IKR      -0.089000
     16 C29         -4.2380    -0.9640     0.4300 ce         1 IKR       0.368900
     17 C30         -4.4520    -1.6110     1.7900 c          1 IKR       0.513800
     18 O31         -4.3750    -2.9890     1.7530 os         1 IKR      -0.414100
     19 C32         -4.5580    -3.7180     2.9820 c3         1 IKR       0.149900
     20 O36         -4.6680    -0.9850     2.8240 o          1 IKR      -0.463000
     21 N37         -3.9750    -1.7150    -0.6090 n2         1 IKR      -0.267700
     22 O38         -4.1760    -1.0990    -1.8660 os         1 IKR      -0.296000
     23 C39         -3.8290    -2.0090    -2.9240 c3         1 IKR       0.149900
     24 C40          2.7400    -1.5550    -1.7990 c3         1 IKR      -0.054800
     25 I1           5.4350     0.1260    -0.6510 i          1 IKR      -0.325000
     26 H3           0.2300    -0.6720    -1.2840 ha         1 IKR       0.119000
     27 H6           3.6770     2.3100     0.7210 ha         1 IKR       0.127000
     28 H11          0.5270     2.9430     2.1140 hc         1 IKR       0.044700
     29 H11A         2.0120     3.7680     1.6210 hc         1 IKR       0.044700
     30 H11B         0.5570     3.9030     0.6250 hc         1 IKR       0.044700
     31 H16         -1.7510     0.6120    -1.5670 h1         1 IKR       0.049200
     32 H16A        -1.7690    -0.3510    -0.0720 h1         1 IKR       0.049200
     33 H21         -6.3480     0.6150     1.0090 ha         1 IKR       0.118000
     34 H22         -6.5370     3.0780     0.8380 ha         1 IKR       0.117000
     35 H23         -4.6000     4.4290     0.0460 ha         1 IKR       0.115000
     36 H24         -2.4710     3.3160    -0.5560 ha         1 IKR       0.129000
     37 H32         -4.4720    -4.7960     2.8030 h1         1 IKR       0.052033
     38 H32A        -3.7990    -3.4340     3.7230 h1         1 IKR       0.052033
     39 H32B        -5.5510    -3.5230     3.4090 h1         1 IKR       0.052033
     40 H39         -2.7750    -2.3050    -2.8550 h1         1 IKR       0.046700
     41 H39A        -4.4500    -2.9130    -2.8820 h1         1 IKR       0.046700
     42 H39B        -3.9860    -1.5340    -3.9010 h1         1 IKR       0.046700
     43 H40          3.3190    -2.2480    -1.1770 hc         1 IKR       0.051367
     44 H40A         1.8680    -2.1040    -2.1730 hc         1 IKR       0.051367
     45 H40B         3.3520    -1.2850    -2.6670 hc         1 IKR       0.051367
@<TRIPOS>BOND
     1     1     2 ar  
     2     1     6 ar  
     3     1    25 1   
     4     2     3 ar  
     5     2    24 1   
     6     3     4 ar  
     7     3    26 1   
     8     4     5 ar  
     9     4     8 1   
    10     5     6 ar  
    11     5     7 1   
    12     6    27 1   
    13     7    28 1   
    14     7    29 1   
    15     7    30 1   
    16     8     9 1   
    17     9    10 1   
    18     9    31 1   
    19     9    32 1   
    20    10    11 ar  
    21    10    15 ar  
    22    11    12 ar  
    23    11    16 1   
    24    12    13 ar  
    25    12    33 1   
    26    13    14 ar  
    27    13    34 1   
    28    14    15 ar  
    29    14    35 1   
    30    15    36 1   
    31    16    17 1   
    32    16    21 2   
    33    17    18 1   
    34    17    20 2   
    35    18    19 1   
    36    19    37 1   
    37    19    38 1   
    38    19    39 1   
    39    21    22 1   
    40    22    23 1   
    41    23    40 1   
    42    23    41 1   
    43    23    42 1   
    44    24    43 1   
    45    24    44 1   
    46    24    45 1   
@<TRIPOS>SUBSTRUCTURE
     1 IKR         1 TEMP              0 ****  ****    0 ROOT
