@<TRIPOS>MOLECULE
IKR
   45    46     1     0     0
SMALL
abcg2


@<TRIPOS>ATOM
      1 C1           3.1860     0.5590    -0.5670 ca         1 IKR       0.163000
      2 C2           2.2380    -0.4330    -0.7830 ca         1 IKR      -0.006300
      3 C3           0.9070    -0.1110    -0.5060 ca         1 IKR      -0.204000
      4 C4           0.5410     1.1430    -0.0360 ca         1 IKR       0.162100
      5 C5           1.5080     2.1340     0.1810 ca         1 IKR      -0.111300
      6 C6           2.8280     1.8160    -0.0920 ca         1 IKR      -0.048000
      7 C11          1.1190     3.4900     0.6900 c3         1 IKR      -0.033800
      8 O15         -0.7280     1.4980     0.2450 os         1 IKR      -0.342100
      9 C16         -1.7730     0.6090    -0.0770 c3         1 IKR       0.205900
     10 C17         -3.0920     1.2840     0.1860 ca         1 IKR      -0.050300
     11 C20         -4.2430     0.5130     0.3640 ca         1 IKR      -0.137900
     12 C21         -5.4700     1.1280     0.5920 ca         1 IKR      -0.072000
     13 C22         -5.5670     2.5100     0.6380 ca         1 IKR      -0.108000
     14 C23         -4.4270     3.2790     0.4600 ca         1 IKR      -0.099000
     15 C24         -3.2000     2.6710     0.2360 ca         1 IKR      -0.089000
     16 C29         -4.2040    -0.9670     0.3070 ce         1 IKR       0.368900
     17 C30         -4.3670    -1.7070     1.5920 c          1 IKR       0.513800
     18 O31         -4.3860    -3.0150     1.4430 os         1 IKR      -0.414100
     19 C32         -4.5440    -3.8050     2.6240 c3         1 IKR       0.149900
     20 O36         -4.4680    -1.1330     2.6470 o          1 IKR      -0.463000
     21 N37         -4.0580    -1.6710    -0.7450 n2         1 IKR      -0.267700
     22 O38         -3.9220    -0.9470    -1.8620 os         1 IKR      -0.296000
     23 C39         -3.7480    -1.7940    -2.9930 c3         1 IKR       0.149900
     24 C40          2.5750    -1.8040    -1.2880 c3         1 IKR      -0.054800
     25 I1           5.2290     0.2000    -0.9530 i          1 IKR      -0.325000
     26 H3           0.1640    -0.8820    -0.6630 ha         1 IKR       0.119000
     27 H6           3.5840     2.5740     0.0670 ha         1 IKR       0.127000
     28 H11          0.6710     3.4330     1.6830 hc         1 IKR       0.044700
     29 H11A         1.9890     4.1410     0.7530 hc         1 IKR       0.044700
     30 H11B         0.3890     3.9700     0.0360 hc         1 IKR       0.044700
     31 H16         -1.7120     0.3200    -1.1330 h1         1 IKR       0.049200
     32 H16A        -1.6910    -0.3070     0.5190 h1         1 IKR       0.049200
     33 H21         -6.3550     0.5200     0.7330 ha         1 IKR       0.118000
     34 H22         -6.5250     2.9790     0.8160 ha         1 IKR       0.117000
     35 H23         -4.4890     4.3590     0.4950 ha         1 IKR       0.115000
     36 H24         -2.3240     3.2900     0.1030 ha         1 IKR       0.129000
     37 H32         -4.5470    -4.8380     2.2890 h1         1 IKR       0.052033
     38 H32A        -3.7170    -3.6510     3.3170 h1         1 IKR       0.052033
     39 H32B        -5.4840    -3.5830     3.1260 h1         1 IKR       0.052033
     40 H39         -2.8430    -2.3950    -2.9030 h1         1 IKR       0.046700
     41 H39A        -4.6100    -2.4480    -3.1310 h1         1 IKR       0.046700
     42 H39B        -3.6580    -1.1310    -3.8500 h1         1 IKR       0.046700
     43 H40          3.2740    -2.3140    -0.6240 hc         1 IKR       0.051367
     44 H40A         1.6800    -2.4180    -1.3650 hc         1 IKR       0.051367
     45 H40B         3.0380    -1.7630    -2.2750 hc         1 IKR       0.051367
@<TRIPOS>BOND
     1     1     2 ar  
     2     1     6 ar  
     3     1    25 1   
     4     2     3 ar  
     5     2    24 1   
     6     3     4 ar  
     7     3    26 1   
     8     4     5 ar  
     9     4     8 1   
    10     5     6 ar  
    11     5     7 1   
    12     6    27 1   
    13     7    28 1   
    14     7    29 1   
    15     7    30 1   
    16     8     9 1   
    17     9    10 1   
    18     9    31 1   
    19     9    32 1   
    20    10    11 ar  
    21    10    15 ar  
    22    11    12 ar  
    23    11    16 1   
    24    12    13 ar  
    25    12    33 1   
    26    13    14 ar  
    27    13    34 1   
    28    14    15 ar  
    29    14    35 1   
    30    15    36 1   
    31    16    17 1   
    32    16    21 2   
    33    17    18 1   
    34    17    20 2   
    35    18    19 1   
    36    19    37 1   
    37    19    38 1   
    38    19    39 1   
    39    21    22 1   
    40    22    23 1   
    41    23    40 1   
    42    23    41 1   
    43    23    42 1   
    44    24    43 1   
    45    24    44 1   
    46    24    45 1   
@<TRIPOS>SUBSTRUCTURE
     1 IKR         1 TEMP              0 ****  ****    0 ROOT
