@<TRIPOS>MOLECULE
IKT
   35    34     1     0     0
SMALL
No Charge or Current Charge


@<TRIPOS>ATOM
      1 C1          -1.5910    -0.3140    -3.7660 c          1 IKT       0.714000
      2 O1          -1.7490    -1.4360    -4.2240 o          1 IKT      -0.747000
      3 O2          -2.5150     0.4070    -3.4220 o          1 IKT      -0.747000
      4 C2          -0.1490     0.2090    -3.6050 c3         1 IKT      -0.202400
      5 C3           0.5020    -0.2630    -2.2580 c3         1 IKT      -0.028700
      6 C4          -0.2260     0.3580    -1.0220 c3         1 IKT      -0.072400
      7 C5           0.2900    -0.1140     0.3600 c3         1 IKT      -0.074400
      8 C6          -0.5650     0.4120     1.5340 c3         1 IKT      -0.081400
      9 C7          -0.0470    -0.0490     2.9150 c3         1 IKT      -0.055400
     10 C8          -0.9010     0.4780     4.0940 c3         1 IKT      -0.200400
     11 C9          -0.3260    -0.0190     5.4340 c          1 IKT       0.716000
     12 O3          -0.7140    -1.0930     5.8670 o          1 IKT      -0.754500
     13 O4           0.5270     0.6610     5.9840 o          1 IKT      -0.754500
     14 C10          2.0600    -0.0550    -2.2210 c3         1 IKT       0.152500
     15 C11          2.5140     1.4200    -2.3120 c3         1 IKT      -0.119100
     16 N1           2.7440    -0.8340    -3.2680 n8         1 IKT      -0.981200
     17 H21         -0.1410     1.3060    -3.5970 hc         1 IKT       0.013700
     18 H22          0.4620    -0.2200    -4.4070 hc         1 IKT       0.013700
     19 H3           0.3430    -1.3470    -2.1940 hc         1 IKT       0.074700
     20 H41         -0.1710     1.4520    -1.0710 hc         1 IKT       0.044700
     21 H42         -1.2900     0.1040    -1.0760 hc         1 IKT       0.044700
     22 H51          0.3020    -1.2110     0.3860 hc         1 IKT       0.024700
     23 H52          1.3220     0.2260     0.5060 hc         1 IKT       0.024700
     24 H61         -0.5810     1.5090     1.5030 hc         1 IKT       0.024200
     25 H62         -1.6000     0.0720     1.4070 hc         1 IKT       0.024200
     26 H71         -0.0280    -1.1450     2.9450 hc         1 IKT       0.032700
     27 H72          0.9890     0.2910     3.0420 hc         1 IKT       0.032700
     28 H81         -0.8500     1.5720     4.0360 hc         1 IKT       0.013700
     29 H82         -1.9100     0.0750     3.9360 hc         1 IKT       0.013700
     30 H1           2.4370    -0.4470    -1.2670 h1         1 IKT       0.043700
     31 H2'1         3.6070     1.4920    -2.2490 hc         1 IKT       0.024033
     32 H2'2         2.1980     1.8800    -3.2560 hc         1 IKT       0.024033
     33 H2'3         2.1000     2.0090    -1.4860 hc         1 IKT       0.024033
     34 HN11         2.3430    -0.5720    -4.1740 hn         1 IKT       0.369000
     35 HN12         3.7180    -0.5180    -3.3290 hn         1 IKT       0.369000
@<TRIPOS>BOND
     1     1     2 1   
     2     1     3 1   
     3     1     4 1   
     4     4     5 1   
     5     4    17 1   
     6     4    18 1   
     7     5     6 1   
     8     5    14 1   
     9     5    19 1   
    10     6     7 1   
    11     6    20 1   
    12     6    21 1   
    13     7     8 1   
    14     7    22 1   
    15     7    23 1   
    16     8     9 1   
    17     8    24 1   
    18     8    25 1   
    19     9    10 1   
    20     9    26 1   
    21     9    27 1   
    22    10    11 1   
    23    10    28 1   
    24    10    29 1   
    25    11    12 1   
    26    11    13 1   
    27    14    15 1   
    28    14    16 1   
    29    14    30 1   
    30    15    31 1   
    31    15    32 1   
    32    15    33 1   
    33    16    34 1   
    34    16    35 1   
@<TRIPOS>SUBSTRUCTURE
     1 IKT         1 TEMP              0 ****  ****    0 ROOT
