@<TRIPOS>MOLECULE
IKT
   35    34     1     0     0
SMALL
abcg2


@<TRIPOS>ATOM
      1 C1          -1.6550    -0.1480    -3.7240 c          1 IKT       0.714000
      2 O1          -2.0220    -1.2720    -3.3210 o          1 IKT      -0.747000
      3 O2          -2.3720     0.6880    -4.3120 o          1 IKT      -0.747000
      4 C2          -0.1710     0.2230    -3.5380 c3         1 IKT      -0.202400
      5 C3           0.4800    -0.3030    -2.2590 c3         1 IKT      -0.028700
      6 C4          -0.1950     0.3040    -1.0270 c3         1 IKT      -0.072400
      7 C5           0.3080    -0.2050     0.3190 c3         1 IKT      -0.074400
      8 C6          -0.4680     0.3800     1.4930 c3         1 IKT      -0.081400
      9 C7           0.0140    -0.1200     2.8500 c3         1 IKT      -0.055400
     10 C8          -0.7430     0.5050     4.0100 c3         1 IKT      -0.200400
     11 C9          -0.3250     0.0530     5.4200 c          1 IKT       0.716000
     12 O3           0.5410    -0.8390     5.5130 o          1 IKT      -0.754500
     13 O4          -0.9020     0.6220     6.3710 o          1 IKT      -0.754500
     14 C10          2.0070    -0.1010    -2.2460 c3         1 IKT       0.152500
     15 C11          2.4270     1.3670    -2.1480 c3         1 IKT      -0.119100
     16 N1           2.6190    -0.7960    -3.3780 n8         1 IKT      -0.981200
     17 H21         -0.0600     1.3090    -3.6070 hc         1 IKT       0.013700
     18 H22          0.3490    -0.1900    -4.4110 hc         1 IKT       0.013700
     19 H3           0.3150    -1.3860    -2.2300 hc         1 IKT       0.074700
     20 H41         -0.1040     1.3960    -1.0570 hc         1 IKT       0.044700
     21 H42         -1.2670     0.0970    -1.0890 hc         1 IKT       0.044700
     22 H51          0.2380    -1.2990     0.3440 hc         1 IKT       0.024700
     23 H52          1.3690     0.0320     0.4500 hc         1 IKT       0.024700
     24 H61         -0.3940     1.4730     1.4600 hc         1 IKT       0.024200
     25 H62         -1.5330     0.1500     1.3760 hc         1 IKT       0.024200
     26 H71         -0.0810    -1.2090     2.8890 hc         1 IKT       0.032700
     27 H72          1.0840     0.0890     2.9500 hc         1 IKT       0.032700
     28 H81         -0.6570     1.5960     3.9580 hc         1 IKT       0.013700
     29 H82         -1.8160     0.3050     3.8960 hc         1 IKT       0.013700
     30 H1           2.3880    -0.6070    -1.3530 h1         1 IKT       0.043700
     31 H2'1         3.5160     1.4500    -2.1530 hc         1 IKT       0.024033
     32 H2'2         2.0490     1.9490    -2.9910 hc         1 IKT       0.024033
     33 H2'3         2.0720     1.8410    -1.2320 hc         1 IKT       0.024033
     34 HN11         2.4670    -0.2620    -4.2260 hn         1 IKT       0.369000
     35 HN12         3.6240    -0.7980    -3.2520 hn         1 IKT       0.369000
@<TRIPOS>BOND
     1     1     2 1   
     2     1     3 1   
     3     1     4 1   
     4     4     5 1   
     5     4    17 1   
     6     4    18 1   
     7     5     6 1   
     8     5    14 1   
     9     5    19 1   
    10     6     7 1   
    11     6    20 1   
    12     6    21 1   
    13     7     8 1   
    14     7    22 1   
    15     7    23 1   
    16     8     9 1   
    17     8    24 1   
    18     8    25 1   
    19     9    10 1   
    20     9    26 1   
    21     9    27 1   
    22    10    11 1   
    23    10    28 1   
    24    10    29 1   
    25    11    12 1   
    26    11    13 1   
    27    14    15 1   
    28    14    16 1   
    29    14    30 1   
    30    15    31 1   
    31    15    32 1   
    32    15    33 1   
    33    16    34 1   
    34    16    35 1   
@<TRIPOS>SUBSTRUCTURE
     1 IKT         1 TEMP              0 ****  ****    0 ROOT
