@<TRIPOS>MOLECULE
IKU
   49    52     1     0     0
SMALL
No Charge or Current Charge


@<TRIPOS>ATOM
      1 C05         30.8480   -48.6160   -10.4830 cc         1 IKU       0.453800
      2 C07         29.9340   -50.9690   -10.9370 c3         1 IKU       0.077900
      3 N09         30.6080   -45.5350   -14.0340 nc         1 IKU      -0.386300
      4 C13         29.9390   -44.5210   -16.2090 cd         1 IKU       0.400300
      5 C15         27.6920   -43.8980   -16.2070 cc         1 IKU       0.280900
      6 C16         27.4480   -44.3270   -14.9010 cd         1 IKU      -0.086300
      7 C17         31.2560   -44.6150   -16.9290 c3         1 IKU      -0.140400
      8 C18         26.1120   -44.2250   -14.1990 c3         1 IKU      -0.042800
      9 C19         30.4110   -46.3840   -11.7010 c3         1 IKU      -0.069700
     10 C20         30.2900   -47.9310   -11.7070 c3         1 IKU      -0.102700
     11 C21         32.7830   -49.9330    -6.5250 c5         1 IKU       0.248500
     12 C22         33.0140   -49.0560    -5.2610 c5         1 IKU      -0.094400
     13 C23         33.8130   -47.8560    -5.8350 c5         1 IKU      -0.094400
     14 C24         33.0020   -47.5360    -7.1170 c5         1 IKU       0.239800
     15 C25         33.9650   -50.8650    -6.8820 c3         1 IKU      -0.098100
     16 N01         30.6770   -49.9520   -10.1710 na         1 IKU      -0.064700
     17 N02         31.3070   -50.2630    -9.0060 nc         1 IKU      -0.614800
     18 C03         31.8200   -49.0920    -8.6890 cd         1 IKU       0.806900
     19 N04         31.5820   -48.0520    -9.5430 nd         1 IKU      -0.760000
     20 N06         32.5780   -48.8880    -7.5540 nh         1 IKU      -0.790300
     21 C08         29.8230   -45.7380   -12.9240 cc         1 IKU       0.522300
     22 N10         28.5520   -45.3600   -12.9920 nd         1 IKU      -0.588100
     23 N11         28.5560   -44.8750   -14.2620 na         1 IKU       0.309400
     24 C12         29.7580   -44.9780   -14.8730 cd         1 IKU      -0.121000
     25 N14         28.9170   -43.9850   -16.8730 nc         1 IKU      -0.648000
     26 H27         30.0780   -51.9600   -10.4890 h1         1 IKU       0.054033
     27 H28         28.8650   -50.7240   -10.9310 h1         1 IKU       0.054033
     28 H26         30.2970   -50.9870   -11.9720 h1         1 IKU       0.054033
     29 H29         26.9070   -43.4540   -16.8050 h4         1 IKU       0.038100
     30 H31         31.1990   -44.2060   -17.9450 hc         1 IKU       0.063700
     31 H30         32.0310   -44.0610   -16.3880 hc         1 IKU       0.063700
     32 H32         31.5790   -45.6590   -17.0050 hc         1 IKU       0.063700
     33 H34         26.1870   -43.6110   -13.2940 hc         1 IKU       0.064700
     34 H35         25.3530   -43.7680   -14.8460 hc         1 IKU       0.064700
     35 H33         25.7440   -45.2150   -13.9040 hc         1 IKU       0.064700
     36 H36         31.4670   -46.1010   -11.6160 hc         1 IKU       0.082200
     37 H37         29.9120   -45.9850   -10.8090 hc         1 IKU       0.082200
     38 H38         30.8000   -48.3240   -12.5950 hc         1 IKU       0.064700
     39 H39         29.2320   -48.1980   -11.8130 hc         1 IKU       0.064700
     40 H40         31.8870   -50.5570    -6.3890 h1         1 IKU       0.059700
     41 H42         32.0600   -48.7260    -4.8340 hc         1 IKU       0.050700
     42 H41         33.5550   -49.5880    -4.4700 hc         1 IKU       0.050700
     43 H44         33.8540   -47.0040    -5.1470 hc         1 IKU       0.051200
     44 H43         34.8460   -48.1320    -6.0740 hc         1 IKU       0.051200
     45 H45         33.6160   -47.0210    -7.8690 h1         1 IKU       0.047700
     46 H46         32.1300   -46.9060    -6.8910 h1         1 IKU       0.047700
     47 H48         34.1530   -51.5810    -6.0730 hc         1 IKU       0.041033
     48 H47         33.7480   -51.4410    -7.7890 hc         1 IKU       0.041033
     49 H49         34.8900   -50.3040    -7.0570 hc         1 IKU       0.041033
@<TRIPOS>BOND
     1     1    10 1   
     2     1    16 1   
     3     1    19 2   
     4     2    16 1   
     5     2    26 1   
     6     2    27 1   
     7     2    28 1   
     8     3    21 1   
     9     3    24 2   
    10     4     7 1   
    11     4    24 1   
    12     4    25 2   
    13     5     6 2   
    14     5    25 1   
    15     5    29 1   
    16     6     8 1   
    17     6    23 1   
    18     7    30 1   
    19     7    31 1   
    20     7    32 1   
    21     8    33 1   
    22     8    34 1   
    23     8    35 1   
    24     9    10 1   
    25     9    21 1   
    26     9    36 1   
    27     9    37 1   
    28    10    38 1   
    29    10    39 1   
    30    11    12 1   
    31    11    15 1   
    32    11    20 1   
    33    11    40 1   
    34    12    13 1   
    35    12    41 1   
    36    12    42 1   
    37    13    14 1   
    38    13    43 1   
    39    13    44 1   
    40    14    20 1   
    41    14    45 1   
    42    14    46 1   
    43    15    47 1   
    44    15    48 1   
    45    15    49 1   
    46    16    17 1   
    47    17    18 2   
    48    18    19 1   
    49    18    20 1   
    50    21    22 2   
    51    22    23 1   
    52    23    24 1   
@<TRIPOS>SUBSTRUCTURE
     1 IKU         1 TEMP              0 ****  ****    0 ROOT
