@<TRIPOS>MOLECULE
IKU
   49    52     1     0     0
SMALL
bcc


@<TRIPOS>ATOM
      1 C05         31.0760   -48.6590   -10.6520 cc         1 IKU       0.453800
      2 C07         30.8540   -51.0510   -11.3770 c3         1 IKU       0.048600
      3 N09         30.3740   -45.9940   -14.1720 nc         1 IKU      -0.386300
      4 C13         29.5180   -44.9800   -16.3050 cd         1 IKU       0.465600
      5 C15         27.6540   -43.6780   -15.9370 cc         1 IKU       0.346200
      6 C16         27.6180   -43.8960   -14.5910 cd         1 IKU      -0.100900
      7 C17         30.5470   -45.5670   -17.2100 c3         1 IKU      -0.140400
      8 C18         26.6260   -43.3390   -13.6390 c3         1 IKU      -0.042800
      9 C19         30.4720   -46.4870   -11.7330 c3         1 IKU      -0.069700
     10 C20         30.4830   -48.0090   -11.8550 c3         1 IKU      -0.102700
     11 C21         32.7460   -49.8980    -6.6180 c5         1 IKU       0.248500
     12 C22         32.6920   -49.1750    -5.2690 c5         1 IKU      -0.094400
     13 C23         33.1300   -47.7510    -5.6000 c5         1 IKU      -0.094400
     14 C24         32.4810   -47.5020    -6.9550 c5         1 IKU       0.239800
     15 C25         34.0770   -50.5970    -6.8670 c3         1 IKU      -0.098100
     16 N01         31.2140   -49.9740   -10.4940 na         1 IKU      -0.035400
     17 N02         31.7750   -50.2460    -9.2920 nc         1 IKU      -0.614800
     18 C03         31.9510   -49.0420    -8.7820 cd         1 IKU       0.806900
     19 N04         31.5350   -48.0320    -9.5850 nd         1 IKU      -0.760000
     20 N06         32.5040   -48.8170    -7.5670 nh         1 IKU      -0.790300
     21 C08         29.8740   -45.8460   -12.9350 cc         1 IKU       0.522300
     22 N10         28.7990   -45.0750   -12.8550 nd         1 IKU      -0.588100
     23 N11         28.6060   -44.7070   -14.1190 na         1 IKU       0.208000
     24 C12         29.5590   -45.2640   -14.9180 cd         1 IKU      -0.135600
     25 N14         28.5790   -44.2040   -16.7730 nc         1 IKU      -0.648000
     26 H27         30.0950   -51.6830   -10.9170 h1         1 IKU       0.054033
     27 H28         30.4560   -50.6480   -12.3030 h1         1 IKU       0.054033
     28 H26         31.7280   -51.6570   -11.6090 h1         1 IKU       0.054033
     29 H29         26.9010   -43.0440   -16.3860 h4         1 IKU       0.038100
     30 H31         30.3630   -45.2660   -18.2380 hc         1 IKU       0.063700
     31 H30         31.5480   -45.2440   -16.9230 hc         1 IKU       0.063700
     32 H32         30.5360   -46.6570   -17.1560 hc         1 IKU       0.063700
     33 H34         27.1110   -42.7220   -12.8810 hc         1 IKU       0.064700
     34 H35         25.9050   -42.7240   -14.1720 hc         1 IKU       0.064700
     35 H33         26.0890   -44.1330   -13.1190 hc         1 IKU       0.064700
     36 H36         31.4920   -46.1210   -11.6050 hc         1 IKU       0.082200
     37 H37         29.9090   -46.1810   -10.8520 hc         1 IKU       0.082200
     38 H38         31.0420   -48.3060   -12.7470 hc         1 IKU       0.064700
     39 H39         29.4620   -48.3740   -12.0010 hc         1 IKU       0.064700
     40 H40         31.9430   -50.6390    -6.6910 h1         1 IKU       0.059700
     41 H42         31.6680   -49.1690    -4.8890 hc         1 IKU       0.050700
     42 H41         33.3190   -49.6550    -4.5180 hc         1 IKU       0.050700
     43 H44         32.8170   -47.0220    -4.8530 hc         1 IKU       0.051200
     44 H43         34.2170   -47.6920    -5.6840 hc         1 IKU       0.051200
     45 H45         33.0280   -46.7700    -7.5530 h1         1 IKU       0.047700
     46 H46         31.4560   -47.1270    -6.8380 h1         1 IKU       0.047700
     47 H48         34.2090   -51.4220    -6.1650 hc         1 IKU       0.041033
     48 H47         34.1240   -51.0070    -7.8760 hc         1 IKU       0.041033
     49 H49         34.9130   -49.9080    -6.7410 hc         1 IKU       0.041033
@<TRIPOS>BOND
     1     1    10 1   
     2     1    16 1   
     3     1    19 2   
     4     2    16 1   
     5     2    26 1   
     6     2    27 1   
     7     2    28 1   
     8     3    21 1   
     9     3    24 2   
    10     4     7 1   
    11     4    24 1   
    12     4    25 2   
    13     5     6 2   
    14     5    25 1   
    15     5    29 1   
    16     6     8 1   
    17     6    23 1   
    18     7    30 1   
    19     7    31 1   
    20     7    32 1   
    21     8    33 1   
    22     8    34 1   
    23     8    35 1   
    24     9    10 1   
    25     9    21 1   
    26     9    36 1   
    27     9    37 1   
    28    10    38 1   
    29    10    39 1   
    30    11    12 1   
    31    11    15 1   
    32    11    20 1   
    33    11    40 1   
    34    12    13 1   
    35    12    41 1   
    36    12    42 1   
    37    13    14 1   
    38    13    43 1   
    39    13    44 1   
    40    14    20 1   
    41    14    45 1   
    42    14    46 1   
    43    15    47 1   
    44    15    48 1   
    45    15    49 1   
    46    16    17 1   
    47    17    18 2   
    48    18    19 1   
    49    18    20 1   
    50    21    22 2   
    51    22    23 1   
    52    23    24 1   
@<TRIPOS>SUBSTRUCTURE
     1 IKU         1 TEMP              0 ****  ****    0 ROOT
