@<TRIPOS>MOLECULE
IKV
  129   129     1     0     0
SMALL
abcg2


@<TRIPOS>ATOM
      1 C4         138.7410   178.5460   158.0650 c3         1 IKV      -0.072400
      2 C5         138.4830   178.6570   159.5650 c3         1 IKV      -0.075400
      3 C6         137.1970   179.3880   159.9360 c3         1 IKV      -0.076400
      4 C7         137.0650   179.6120   161.4380 c3         1 IKV      -0.075400
      5 C8         135.8210   180.3940   161.8560 c3         1 IKV      -0.073400
      6 C10        133.2600   180.3530   162.1180 c3         1 IKV      -0.074400
      7 C13        133.6420   182.7240   165.2160 c3         1 IKV      -0.076400
      8 C15        133.0420   185.2060   164.9480 c3         1 IKV      -0.136400
      9 C17        132.1060   185.8460   161.4320 c3         1 IKV       0.162600
     10 C20        131.5420   187.4570   158.1470 c6         1 IKV       0.371300
     11 C21        131.4070   186.8590   156.7440 c6         1 IKV       0.078300
     12 C22        132.4870   187.4530   155.8500 c6         1 IKV       0.132300
     13 C24        133.8600   187.8700   157.8820 c6         1 IKV       0.180300
     14 C28        128.4820   181.1750   162.0600 c3         1 IKV      -0.064400
     15 C1         139.2640   176.6900   155.5580 c3         1 IKV      -0.089100
     16 O1         134.2980   185.7340   162.9670 o          1 IKV      -0.494000
     17 C2         138.0080   177.5060   155.8380 c3         1 IKV      -0.073400
     18 O2         132.0750   185.5820   162.8340 os         1 IKV      -0.447100
     19 C3         137.7100   177.7020   157.3220 c3         1 IKV      -0.078400
     20 O4         132.8390   187.2490   158.6390 os         1 IKV      -0.498000
     21 O6         134.8640   187.8770   155.7110 oh         1 IKV      -0.692000
     22 O7         132.5140   186.8460   154.5800 oh         1 IKV      -0.665000
     23 O8         130.1590   187.1740   156.1780 oh         1 IKV      -0.716000
     24 C9         134.5260   179.6070   161.7000 c3         1 IKV      -0.076400
     25 O9         130.7210   183.9680   161.1270 os         1 IKV      -0.457100
     26 C11        133.2610   180.8420   163.5730 c3         1 IKV      -0.076400
     27 C12        133.6190   182.3140   163.7490 c3         1 IKV      -0.082400
     28 C14        134.0300   184.1730   165.4950 c3         1 IKV      -0.065400
     29 C16        133.2310   185.5230   163.4880 c          1 IKV       0.598100
     30 C18        130.7840   185.3710   160.8680 c3         1 IKV       0.157300
     31 C19        130.6910   185.5650   159.3570 c3         1 IKV       0.139600
     32 C23        133.8650   187.2630   156.4780 c6         1 IKV       0.152300
     33 C25        135.1470   187.6700   158.6730 c3         1 IKV       0.173600
     34 C29        128.7600   179.6930   162.3030 c3         1 IKV      -0.076400
     35 C30        129.4760   179.4020   163.6200 c3         1 IKV      -0.079400
     36 C31        130.1410   178.0330   163.6420 c3         1 IKV      -0.077400
     37 C32        130.9310   177.7630   164.9180 c3         1 IKV      -0.072400
     38 C33        131.8180   176.5210   164.8490 c3         1 IKV      -0.073400
     39 C34        132.9750   176.6590   163.8650 c3         1 IKV      -0.079400
     40 C35        133.8930   175.4420   163.8400 c3         1 IKV      -0.073400
     41 C36        135.0260   175.5240   162.8190 c3         1 IKV      -0.074400
     42 C37        134.5510   175.5470   161.3690 c3         1 IKV      -0.075400
     43 C38        135.6730   175.4970   160.3340 c3         1 IKV      -0.076400
     44 C39        136.4410   174.1780   160.3150 c3         1 IKV      -0.074400
     45 C40        137.4840   174.0850   159.2030 c3         1 IKV      -0.075400
     46 C41        136.8890   173.9550   157.8070 c3         1 IKV      -0.090100
     47 H1         139.7370   178.1190   157.9180 hc         1 IKV       0.037700
     48 H2         138.7760   179.5490   157.6250 hc         1 IKV       0.037700
     49 H3         138.4660   177.6510   160.0010 hc         1 IKV       0.036200
     50 H4         139.3280   179.1740   160.0310 hc         1 IKV       0.036200
     51 H5         137.1770   180.3580   159.4260 hc         1 IKV       0.038200
     52 H6         136.3320   178.8310   159.5640 hc         1 IKV       0.038200
     53 H7         137.0690   178.6450   161.9560 hc         1 IKV       0.036200
     54 H8         137.9550   180.1440   161.7900 hc         1 IKV       0.036200
     55 H9         135.9380   180.6930   162.9020 hc         1 IKV       0.040700
     56 H10        135.7650   181.3240   161.2790 hc         1 IKV       0.040700
     57 H11        132.4110   179.6810   161.9630 hc         1 IKV       0.037700
     58 H12        133.0900   181.2010   161.4450 hc         1 IKV       0.037700
     59 H13        132.6570   182.5280   165.6560 hc         1 IKV       0.037700
     60 H14        134.3430   182.0730   165.7490 hc         1 IKV       0.037700
     61 H15        132.0160   184.8910   165.1420 hc         1 IKV       0.070700
     62 H16        133.1830   186.1520   165.4810 hc         1 IKV       0.070700
     63 H17        132.9350   185.3210   160.9550 h1         1 IKV       0.071700
     64 H18        132.2310   186.9150   161.2580 h1         1 IKV       0.071700
     65 H19        131.3230   188.5350   158.0930 h2         1 IKV       0.084700
     66 H20        131.5640   185.7710   156.7890 h1         1 IKV       0.054700
     67 H21        132.3040   188.5370   155.7580 h1         1 IKV       0.056700
     68 H22        133.6640   188.9520   157.8040 h1         1 IKV       0.065700
     69 H23        127.8060   181.2820   161.2090 hc         1 IKV       0.054700
     70 H24        127.9650   181.6020   162.9240 hc         1 IKV       0.054700
     71 H25        139.3960   176.5250   154.4880 hc         1 IKV       0.030700
     72 H26        140.1650   177.1840   155.9230 hc         1 IKV       0.030700
     73 H27        139.2080   175.7100   156.0370 hc         1 IKV       0.030700
     74 H28        138.0900   178.4840   155.3520 hc         1 IKV       0.036200
     75 H29        137.1530   177.0090   155.3720 hc         1 IKV       0.036200
     76 H30        136.7210   178.1570   157.4240 hc         1 IKV       0.038200
     77 H31        137.6390   176.7210   157.8050 hc         1 IKV       0.038200
     78 H32        136.8990   188.4730   158.7740 ho         1 IKV       0.508000
     79 H33        134.7810   187.5510   154.8080 ho         1 IKV       0.521000
     80 H34        131.7230   187.1060   154.0980 ho         1 IKV       0.465000
     81 H35        129.4850   186.6060   156.5640 ho         1 IKV       0.519000
     82 H36        134.6020   178.6900   162.2940 hc         1 IKV       0.037700
     83 H37        134.4110   179.2830   160.6610 hc         1 IKV       0.037700
     84 H38        133.9400   180.2220   164.1690 hc         1 IKV       0.035200
     85 H39        132.2700   180.6850   164.0090 hc         1 IKV       0.035200
     86 H40        134.5890   182.5310   163.2920 hc         1 IKV       0.045700
     87 H41        132.8820   182.9070   163.1980 hc         1 IKV       0.045700
     88 H42        134.0900   184.3100   166.5760 hc         1 IKV       0.053200
     89 H43        135.0320   184.3770   165.1090 hc         1 IKV       0.053200
     90 H44        129.9550   185.8880   161.3600 h1         1 IKV       0.093700
     91 H45        129.7760   185.0890   158.9930 h1         1 IKV       0.054200
     92 H46        131.5360   185.0610   158.8800 h1         1 IKV       0.054200
     93 H47        134.0510   186.1810   156.5850 h1         1 IKV       0.047700
     94 H48        135.4920   186.6330   158.5560 h1         1 IKV       0.034700
     95 H49        134.9040   187.8070   159.7350 h1         1 IKV       0.034700
     96 H50        130.4550   181.8830   162.6280 hc         1 IKV       0.073700
     97 H51        130.3020   181.4940   160.9420 hc         1 IKV       0.073700
     98 H52        127.8190   179.1380   162.2740 hc         1 IKV       0.041200
     99 H53        129.3600   179.3090   161.4700 hc         1 IKV       0.041200
    100 H54        130.2470   180.1570   163.7990 hc         1 IKV       0.038200
    101 H55        128.7690   179.4990   164.4510 hc         1 IKV       0.038200
    102 H56        129.3900   177.2470   163.5010 hc         1 IKV       0.038200
    103 H57        130.8050   177.9700   162.7740 hc         1 IKV       0.038200
    104 H58        131.5610   178.6310   165.1410 hc         1 IKV       0.037700
    105 H59        130.2360   177.6700   165.7580 hc         1 IKV       0.037700
    106 H60        132.2200   176.3110   165.8450 hc         1 IKV       0.038200
    107 H61        131.2100   175.6490   164.5790 hc         1 IKV       0.038200
    108 H62        132.5820   176.8430   162.8630 hc         1 IKV       0.038700
    109 H63        133.5610   177.5480   164.1260 hc         1 IKV       0.038700
    110 H64        133.2960   174.5460   163.6370 hc         1 IKV       0.036700
    111 H65        134.3190   175.3000   164.8380 hc         1 IKV       0.036700
    112 H66        135.6900   174.6690   162.9740 hc         1 IKV       0.038200
    113 H67        135.6360   176.4150   163.0110 hc         1 IKV       0.038200
    114 H68        133.9560   176.4470   161.1950 hc         1 IKV       0.037200
    115 H69        133.8730   174.7010   161.2010 hc         1 IKV       0.037200
    116 H70        136.3750   176.3210   160.5120 hc         1 IKV       0.039200
    117 H71        135.2400   175.6840   159.3470 hc         1 IKV       0.039200
    118 H72        135.7330   173.3480   160.2140 hc         1 IKV       0.036700
    119 H73        136.9400   174.0340   161.2770 hc         1 IKV       0.036700
    120 H74        138.1360   174.9630   159.2500 hc         1 IKV       0.037200
    121 H75        138.1300   173.2230   159.3910 hc         1 IKV       0.037200
    122 H76        137.6710   173.8810   157.0500 hc         1 IKV       0.031033
    123 H77        136.2700   173.0580   157.7310 hc         1 IKV       0.031033
    124 H78        136.2640   174.8080   157.5420 hc         1 IKV       0.031033
    125 C26        129.5640   183.4030   161.4810 c          1 IKV       0.599100
    126 O3         130.6400   186.9510   159.0690 os         1 IKV      -0.440000
    127 O5         136.1080   188.6010   158.2440 oh         1 IKV      -0.705000
    128 O10        128.5210   184.0000   161.5480 o          1 IKV      -0.480000
    129 C27        129.7640   181.9460   161.7810 c3         1 IKV      -0.143400
@<TRIPOS>BOND
     1     1     2 1   
     2     1    19 1   
     3     1    47 1   
     4     1    48 1   
     5     2     3 1   
     6     2    49 1   
     7     2    50 1   
     8     3     4 1   
     9     3    51 1   
    10     3    52 1   
    11     4     5 1   
    12     4    53 1   
    13     4    54 1   
    14     5    24 1   
    15     5    55 1   
    16     5    56 1   
    17     6    24 1   
    18     6    26 1   
    19     6    57 1   
    20     6    58 1   
    21     7    27 1   
    22     7    28 1   
    23     7    59 1   
    24     7    60 1   
    25     8    28 1   
    26     8    29 1   
    27     8    61 1   
    28     8    62 1   
    29     9    18 1   
    30     9    30 1   
    31     9    63 1   
    32     9    64 1   
    33    10    11 1   
    34    10    20 1   
    35    10    65 1   
    36    10   126 1   
    37    11    12 1   
    38    11    23 1   
    39    11    66 1   
    40    12    22 1   
    41    12    32 1   
    42    12    67 1   
    43    13    20 1   
    44    13    32 1   
    45    13    33 1   
    46    13    68 1   
    47    14    34 1   
    48    14    69 1   
    49    14    70 1   
    50    14   129 1   
    51    15    17 1   
    52    15    71 1   
    53    15    72 1   
    54    15    73 1   
    55    16    29 2   
    56    17    19 1   
    57    17    74 1   
    58    17    75 1   
    59    18    29 1   
    60    19    76 1   
    61    19    77 1   
    62    21    32 1   
    63    21    79 1   
    64    22    80 1   
    65    23    81 1   
    66    24    82 1   
    67    24    83 1   
    68    25    30 1   
    69    25   125 1   
    70    26    27 1   
    71    26    84 1   
    72    26    85 1   
    73    27    86 1   
    74    27    87 1   
    75    28    88 1   
    76    28    89 1   
    77    30    31 1   
    78    30    90 1   
    79    31    91 1   
    80    31    92 1   
    81    31   126 1   
    82    32    93 1   
    83    33    94 1   
    84    33    95 1   
    85    33   127 1   
    86    34    35 1   
    87    34    98 1   
    88    34    99 1   
    89    35    36 1   
    90    35   100 1   
    91    35   101 1   
    92    36    37 1   
    93    36   102 1   
    94    36   103 1   
    95    37    38 1   
    96    37   104 1   
    97    37   105 1   
    98    38    39 1   
    99    38   106 1   
   100    38   107 1   
   101    39    40 1   
   102    39   108 1   
   103    39   109 1   
   104    40    41 1   
   105    40   110 1   
   106    40   111 1   
   107    41    42 1   
   108    41   112 1   
   109    41   113 1   
   110    42    43 1   
   111    42   114 1   
   112    42   115 1   
   113    43    44 1   
   114    43   116 1   
   115    43   117 1   
   116    44    45 1   
   117    44   118 1   
   118    44   119 1   
   119    45    46 1   
   120    45   120 1   
   121    45   121 1   
   122    46   122 1   
   123    46   123 1   
   124    46   124 1   
   125    78   127 1   
   126    96   129 1   
   127    97   129 1   
   128   125   128 2   
   129   125   129 1   
@<TRIPOS>SUBSTRUCTURE
     1 IKV         1 TEMP              0 ****  ****    0 ROOT
