@<TRIPOS>MOLECULE
IKV
  129   129     1     0     0
SMALL
No Charge or Current Charge


@<TRIPOS>ATOM
      1 C4         139.0260   178.0530   158.5210 c3         1 IKV      -0.072400
      2 C5         138.7180   178.2180   160.0280 c3         1 IKV      -0.075400
      3 C6         137.4180   178.9960   160.3380 c3         1 IKV      -0.076400
      4 C7         137.1820   179.1890   161.8540 c3         1 IKV      -0.075400
      5 C8         135.9540   180.0610   162.2070 c3         1 IKV      -0.073400
      6 C10        133.3490   180.3100   162.1400 c3         1 IKV      -0.074400
      7 C13        133.5550   182.4250   165.5030 c3         1 IKV      -0.076400
      8 C15        133.6220   185.0580   165.5410 c3         1 IKV      -0.136400
      9 C17        132.9410   185.8430   161.9310 c3         1 IKV       0.162600
     10 C20        131.9080   188.2630   158.5520 c6         1 IKV       0.371300
     11 C21        130.6270   188.1530   157.6570 c6         1 IKV       0.078300
     12 C22        130.8880   188.9420   156.3470 c6         1 IKV       0.132300
     13 C24        133.3870   188.4590   156.6330 c6         1 IKV       0.180300
     14 C28        128.7460   181.4460   161.0610 c3         1 IKV      -0.064400
     15 C1         139.5640   176.0750   156.0300 c3         1 IKV      -0.089100
     16 O1         135.0360   185.8110   163.7120 o          1 IKV      -0.494000
     17 C2         138.3290   176.9710   156.2560 c3         1 IKV      -0.073400
     18 O2         132.8090   185.4460   163.3130 os         1 IKV      -0.447100
     19 C3         137.9790   177.2190   157.7430 c3         1 IKV      -0.078400
     20 O4         133.0420   187.7300   157.8420 os         1 IKV      -0.498000
     21 O6         132.3780   189.1850   154.4380 oh         1 IKV      -0.692000
     22 O7         129.7440   188.8440   155.4820 oh         1 IKV      -0.665000
     23 O8         129.4360   188.6480   158.3160 oh         1 IKV      -0.716000
     24 C9         134.5900   179.4320   161.8360 c3         1 IKV      -0.076400
     25 O9         131.3760   184.1710   161.1980 os         1 IKV      -0.457100
     26 C11        133.1550   180.7100   163.6260 c3         1 IKV      -0.076400
     27 C12        133.7440   182.0920   164.0040 c3         1 IKV      -0.082400
     28 C14        134.2590   183.7170   165.9940 c3         1 IKV      -0.065400
     29 C16        133.9370   185.4290   164.0880 c          1 IKV       0.598100
     30 C18        131.5860   185.6020   161.2250 c3         1 IKV       0.157300
     31 C19        131.5730   186.1350   159.7690 c3         1 IKV       0.139600
     32 C23        132.1710   188.4130   155.6350 c6         1 IKV       0.152300
     33 C25        134.6950   187.7890   156.0890 c3         1 IKV       0.173600
     34 C29        128.8540   179.9120   161.2330 c3         1 IKV      -0.076400
     35 C30        129.2400   179.4680   162.6660 c3         1 IKV      -0.079400
     36 C31        129.8550   178.0540   162.7230 c3         1 IKV      -0.077400
     37 C32        130.3490   177.6740   164.1400 c3         1 IKV      -0.072400
     38 C33        131.1620   176.3590   164.2070 c3         1 IKV      -0.073400
     39 C34        132.5380   176.4360   163.5040 c3         1 IKV      -0.079400
     40 C35        133.3930   175.1620   163.6880 c3         1 IKV      -0.073400
     41 C36        134.7600   175.1980   162.9610 c3         1 IKV      -0.074400
     42 C37        134.6580   175.1320   161.4150 c3         1 IKV      -0.075400
     43 C38        136.0150   175.1080   160.6700 c3         1 IKV      -0.076400
     44 C39        136.9050   173.8830   160.9990 c3         1 IKV      -0.074400
     45 C40        138.1580   173.7410   160.1020 c3         1 IKV      -0.075400
     46 C41        137.8570   173.2630   158.6660 c3         1 IKV      -0.090100
     47 H1         140.0090   177.5750   158.4330 hc         1 IKV       0.037700
     48 H2         139.1170   179.0440   158.0590 hc         1 IKV       0.037700
     49 H3         138.6710   177.2280   160.4960 hc         1 IKV       0.036200
     50 H4         139.5620   178.7420   160.4950 hc         1 IKV       0.036200
     51 H5         137.4600   179.9780   159.8500 hc         1 IKV       0.038200
     52 H6         136.5650   178.4580   159.9100 hc         1 IKV       0.038200
     53 H7         137.0790   178.2080   162.3340 hc         1 IKV       0.036200
     54 H8         138.0720   179.6590   162.2900 hc         1 IKV       0.036200
     55 H9         135.9800   180.2360   163.2890 hc         1 IKV       0.040700
     56 H10        136.0510   181.0410   161.7220 hc         1 IKV       0.040700
     57 H11        132.4640   179.7470   161.8220 hc         1 IKV       0.037700
     58 H12        133.3730   181.2110   161.5140 hc         1 IKV       0.037700
     59 H13        132.4840   182.4850   165.7320 hc         1 IKV       0.037700
     60 H14        133.9490   181.5870   166.0910 hc         1 IKV       0.037700
     61 H15        132.5360   184.9960   165.6820 hc         1 IKV       0.070700
     62 H16        134.0250   185.8520   166.1780 hc         1 IKV       0.070700
     63 H17        133.7180   185.2560   161.4230 h1         1 IKV       0.071700
     64 H18        133.2140   186.9040   161.8610 h1         1 IKV       0.071700
     65 H19        132.0910   189.3270   158.7720 h2         1 IKV       0.084700
     66 H20        130.4890   187.0950   157.3890 h1         1 IKV       0.054700
     67 H21        131.0560   189.9960   156.6180 h1         1 IKV       0.056700
     68 H22        133.6140   189.5010   156.9010 h1         1 IKV       0.065700
     69 H23        128.2220   181.6640   160.1210 hc         1 IKV       0.054700
     70 H24        128.1320   181.8610   161.8700 hc         1 IKV       0.054700
     71 H25        139.6920   175.8690   154.9610 hc         1 IKV       0.030700
     72 H26        140.4790   176.5600   156.3900 hc         1 IKV       0.030700
     73 H27        139.4500   175.1170   156.5510 hc         1 IKV       0.030700
     74 H28        138.4820   177.9340   155.7520 hc         1 IKV       0.036200
     75 H29        137.4660   176.4980   155.7720 hc         1 IKV       0.036200
     76 H30        137.0110   177.7330   157.7770 hc         1 IKV       0.038200
     77 H31        137.8390   176.2560   158.2450 hc         1 IKV       0.038200
     78 H32        136.1300   188.0010   154.7580 ho         1 IKV       0.508000
     79 H33        131.4710   189.3220   154.0730 ho         1 IKV       0.521000
     80 H34        128.9720   188.8610   156.0960 ho         1 IKV       0.465000
     81 H35        129.4480   188.2960   159.2380 ho         1 IKV       0.519000
     82 H36        134.4890   178.4740   162.3590 hc         1 IKV       0.037700
     83 H37        134.5750   179.2000   160.7650 hc         1 IKV       0.037700
     84 H38        133.5770   179.9310   164.2730 hc         1 IKV       0.035200
     85 H39        132.0820   180.7360   163.8420 hc         1 IKV       0.035200
     86 H40        134.8100   182.1310   163.7600 hc         1 IKV       0.045700
     87 H41        133.2500   182.8540   163.3930 hc         1 IKV       0.045700
     88 H42        134.2440   183.6990   167.0910 hc         1 IKV       0.053200
     89 H43        135.3190   183.6930   165.7080 hc         1 IKV       0.053200
     90 H44        130.8000   186.1080   161.8020 h1         1 IKV       0.093700
     91 H45        130.6160   185.8860   159.2940 h1         1 IKV       0.054200
     92 H46        132.3750   185.6440   159.2020 h1         1 IKV       0.054200
     93 H47        132.0000   187.3600   155.3660 h1         1 IKV       0.047700
     94 H48        134.4380   186.7830   155.7310 h1         1 IKV       0.034700
     95 H49        135.3830   187.6640   156.9370 h1         1 IKV       0.034700
     96 H50        130.7590   181.8710   161.8860 hc         1 IKV       0.073700
     97 H51        130.7500   181.7920   160.2030 hc         1 IKV       0.073700
     98 H52        127.8940   179.4500   160.9680 hc         1 IKV       0.041200
     99 H53        129.5890   179.5310   160.5120 hc         1 IKV       0.041200
    100 H54        129.9600   180.1730   163.0920 hc         1 IKV       0.038200
    101 H55        128.3520   179.5110   163.3090 hc         1 IKV       0.038200
    102 H56        129.1190   177.3170   162.3810 hc         1 IKV       0.038200
    103 H57        130.6930   178.0190   162.0190 hc         1 IKV       0.038200
    104 H58        130.9660   178.4870   164.5430 hc         1 IKV       0.037700
    105 H59        129.4800   177.5870   164.8030 hc         1 IKV       0.037700
    106 H60        131.3190   176.1050   165.2630 hc         1 IKV       0.038200
    107 H61        130.5710   175.5430   163.7720 hc         1 IKV       0.038200
    108 H62        132.3860   176.6150   162.4350 hc         1 IKV       0.038700
    109 H63        133.0930   177.2950   163.9000 hc         1 IKV       0.038700
    110 H64        132.8260   174.2880   163.3450 hc         1 IKV       0.036700
    111 H65        133.5740   175.0150   164.7600 hc         1 IKV       0.036700
    112 H66        135.3460   174.3440   163.3190 hc         1 IKV       0.038200
    113 H67        135.3080   176.1010   163.2550 hc         1 IKV       0.038200
    114 H68        134.0940   175.9990   161.0520 hc         1 IKV       0.037200
    115 H69        134.0810   174.2430   161.1300 hc         1 IKV       0.037200
    116 H70        136.5660   176.0270   160.8990 hc         1 IKV       0.039200
    117 H71        135.8070   175.1290   159.5940 hc         1 IKV       0.039200
    118 H72        136.3090   172.9640   160.9310 hc         1 IKV       0.036700
    119 H73        137.2430   173.9610   162.0400 hc         1 IKV       0.036700
    120 H74        138.6950   174.6970   160.0660 hc         1 IKV       0.037200
    121 H75        138.8390   173.0190   160.5680 hc         1 IKV       0.037200
    122 H76        138.7890   173.1580   158.0980 hc         1 IKV       0.031033
    123 H77        137.3570   172.2870   158.6810 hc         1 IKV       0.031033
    124 H78        137.2120   173.9700   158.1320 hc         1 IKV       0.031033
    125 C26        130.1190   183.6740   160.9740 c          1 IKV       0.599100
    126 O3         131.7680   187.5650   159.8080 os         1 IKV      -0.440000
    127 O5         135.3530   188.5340   155.0460 oh         1 IKV      -0.705000
    128 O10        129.1190   184.3570   160.8060 o          1 IKV      -0.480000
    129 C27        130.1300   182.1470   161.0340 c3         1 IKV      -0.143400
@<TRIPOS>BOND
     1     1     2 1   
     2     1    19 1   
     3     1    47 1   
     4     1    48 1   
     5     2     3 1   
     6     2    49 1   
     7     2    50 1   
     8     3     4 1   
     9     3    51 1   
    10     3    52 1   
    11     4     5 1   
    12     4    53 1   
    13     4    54 1   
    14     5    24 1   
    15     5    55 1   
    16     5    56 1   
    17     6    24 1   
    18     6    26 1   
    19     6    57 1   
    20     6    58 1   
    21     7    27 1   
    22     7    28 1   
    23     7    59 1   
    24     7    60 1   
    25     8    28 1   
    26     8    29 1   
    27     8    61 1   
    28     8    62 1   
    29     9    18 1   
    30     9    30 1   
    31     9    63 1   
    32     9    64 1   
    33    10    11 1   
    34    10    20 1   
    35    10    65 1   
    36    10   126 1   
    37    11    12 1   
    38    11    23 1   
    39    11    66 1   
    40    12    22 1   
    41    12    32 1   
    42    12    67 1   
    43    13    20 1   
    44    13    32 1   
    45    13    33 1   
    46    13    68 1   
    47    14    34 1   
    48    14    69 1   
    49    14    70 1   
    50    14   129 1   
    51    15    17 1   
    52    15    71 1   
    53    15    72 1   
    54    15    73 1   
    55    16    29 2   
    56    17    19 1   
    57    17    74 1   
    58    17    75 1   
    59    18    29 1   
    60    19    76 1   
    61    19    77 1   
    62    21    32 1   
    63    21    79 1   
    64    22    80 1   
    65    23    81 1   
    66    24    82 1   
    67    24    83 1   
    68    25    30 1   
    69    25   125 1   
    70    26    27 1   
    71    26    84 1   
    72    26    85 1   
    73    27    86 1   
    74    27    87 1   
    75    28    88 1   
    76    28    89 1   
    77    30    31 1   
    78    30    90 1   
    79    31    91 1   
    80    31    92 1   
    81    31   126 1   
    82    32    93 1   
    83    33    94 1   
    84    33    95 1   
    85    33   127 1   
    86    34    35 1   
    87    34    98 1   
    88    34    99 1   
    89    35    36 1   
    90    35   100 1   
    91    35   101 1   
    92    36    37 1   
    93    36   102 1   
    94    36   103 1   
    95    37    38 1   
    96    37   104 1   
    97    37   105 1   
    98    38    39 1   
    99    38   106 1   
   100    38   107 1   
   101    39    40 1   
   102    39   108 1   
   103    39   109 1   
   104    40    41 1   
   105    40   110 1   
   106    40   111 1   
   107    41    42 1   
   108    41   112 1   
   109    41   113 1   
   110    42    43 1   
   111    42   114 1   
   112    42   115 1   
   113    43    44 1   
   114    43   116 1   
   115    43   117 1   
   116    44    45 1   
   117    44   118 1   
   118    44   119 1   
   119    45    46 1   
   120    45   120 1   
   121    45   121 1   
   122    46   122 1   
   123    46   123 1   
   124    46   124 1   
   125    78   127 1   
   126    96   129 1   
   127    97   129 1   
   128   125   128 2   
   129   125   129 1   
@<TRIPOS>SUBSTRUCTURE
     1 IKV         1 TEMP              0 ****  ****    0 ROOT
