@<TRIPOS>MOLECULE
IKY
   26    27     1     0     0
SMALL
No Charge or Current Charge


@<TRIPOS>ATOM
      1 FAC         -3.5720    -1.4680    -1.2280 f          1 IKY      -0.108333
      2 CAS         -2.4180    -1.1740    -0.5850 c3         1 IKY       0.358300
      3 FAD         -2.3550    -2.0020     0.4810 f          1 IKY      -0.108333
      4 FAE         -1.4240    -1.5270    -1.4330 f          1 IKY      -0.108333
      5 CAR         -2.3310     0.3090    -0.1620 ca         1 IKY      -0.163300
      6 CAI         -3.5170     1.0850    -0.1530 ca         1 IKY      -0.069000
      7 CAG         -3.4910     2.4500     0.1690 ca         1 IKY      -0.097000
      8 CAF         -2.2770     3.0720     0.4800 ca         1 IKY      -0.086000
      9 CAH         -1.0930     2.3220     0.4900 ca         1 IKY      -0.077000
     10 CAP         -1.0980     0.9370     0.2060 ca         1 IKY      -0.081500
     11 CAQ          0.1970     0.2350     0.2350 cc         1 IKY       0.490500
     12 NAK          1.3680     0.7490    -0.1180 nd         1 IKY      -0.667000
     13 OAM          0.2730    -0.9970     0.8160 os         1 IKY      -0.235000
     14 CAJ          1.5960    -1.3050     0.7620 cc         1 IKY       0.194900
     15 CAO          2.2770    -0.2580     0.2000 cd         1 IKY       0.154500
     16 CAN          3.7620    -0.2950     0.0190 c          1 IKY       0.546600
     17 OAA          4.4830    -1.2350     0.3420 o          1 IKY      -0.575100
     18 NAL          4.2540     0.8650    -0.5700 ns         1 IKY      -0.372400
     19 OAB          5.6720     1.1620    -0.5720 oh         1 IKY      -0.420100
     20 HAI         -4.4770     0.6370    -0.4040 ha         1 IKY       0.137000
     21 HAG         -4.4130     3.0280     0.1650 ha         1 IKY       0.127000
     22 HAF         -2.2530     4.1330     0.7170 ha         1 IKY       0.127000
     23 HAH         -0.1590     2.8210     0.7420 ha         1 IKY       0.137000
     24 HAJ          1.9170    -2.2620     1.1470 h4         1 IKY       0.089100
     25 HAL          3.6170     1.6570    -0.6790 hn         1 IKY       0.360500
     26 HAB          5.8560     1.4070    -1.5090 ho         1 IKY       0.445000
@<TRIPOS>BOND
     1     1     2 1   
     2     2     3 1   
     3     2     4 1   
     4     2     5 1   
     5     5     6 ar  
     6     5    10 ar  
     7     6     7 ar  
     8     6    20 1   
     9     7     8 ar  
    10     7    21 1   
    11     8     9 ar  
    12     8    22 1   
    13     9    10 ar  
    14     9    23 1   
    15    10    11 1   
    16    11    12 2   
    17    11    13 1   
    18    12    15 1   
    19    13    14 1   
    20    14    15 2   
    21    14    24 1   
    22    15    16 1   
    23    16    17 2   
    24    16    18 1   
    25    18    19 1   
    26    18    25 1   
    27    19    26 1   
@<TRIPOS>SUBSTRUCTURE
     1 IKY         1 TEMP              0 ****  ****    0 ROOT
