@<TRIPOS>MOLECULE
IKY
   26    27     1     0     0
SMALL
abcg2


@<TRIPOS>ATOM
      1 FAC         -3.4470    -1.3660    -1.3220 f          1 IKY      -0.108333
      2 CAS         -2.3380    -1.1100    -0.6230 c3         1 IKY       0.358300
      3 FAD         -2.3330    -1.9620     0.4090 f          1 IKY      -0.108333
      4 FAE         -1.3060    -1.4330    -1.4130 f          1 IKY      -0.108333
      5 CAR         -2.2740     0.3250    -0.1810 ca         1 IKY      -0.163300
      6 CAI         -3.4430     1.0750    -0.1930 ca         1 IKY      -0.069000
      7 CAG         -3.4270     2.4170     0.1590 ca         1 IKY      -0.097000
      8 CAF         -2.2340     3.0250     0.5120 ca         1 IKY      -0.086000
      9 CAH         -1.0650     2.2830     0.5350 ca         1 IKY      -0.077000
     10 CAP         -1.0700     0.9290     0.2060 ca         1 IKY      -0.081500
     11 CAQ          0.2180     0.2390     0.2850 cc         1 IKY       0.490500
     12 NAK          1.3670     0.7060    -0.0650 nd         1 IKY      -0.667000
     13 OAM          0.2920    -0.9840     0.8320 os         1 IKY      -0.235000
     14 CAJ          1.5940    -1.3190     0.8140 cc         1 IKY       0.194900
     15 CAO          2.2650    -0.2820     0.2660 cd         1 IKY       0.154500
     16 CAN          3.7200    -0.1860     0.0470 c          1 IKY       0.546600
     17 OAA          4.4810    -1.0780     0.3800 o          1 IKY      -0.575100
     18 NAL          4.0880     0.9520    -0.5630 ns         1 IKY      -0.372400
     19 OAB          5.4060     1.2540    -0.6920 oh         1 IKY      -0.420100
     20 HAI         -4.3810     0.6270    -0.4880 ha         1 IKY       0.137000
     21 HAG         -4.3480     2.9830     0.1470 ha         1 IKY       0.127000
     22 HAF         -2.2100     4.0730     0.7770 ha         1 IKY       0.127000
     23 HAH         -0.1340     2.7510     0.8260 ha         1 IKY       0.137000
     24 HAJ          1.8750    -2.2800     1.2100 h4         1 IKY       0.089100
     25 HAL          3.4430     1.7150    -0.7190 hn         1 IKY       0.360500
     26 HAB          5.6570     0.9920    -1.5870 ho         1 IKY       0.445000
@<TRIPOS>BOND
     1     1     2 1   
     2     2     3 1   
     3     2     4 1   
     4     2     5 1   
     5     5     6 ar  
     6     5    10 ar  
     7     6     7 ar  
     8     6    20 1   
     9     7     8 ar  
    10     7    21 1   
    11     8     9 ar  
    12     8    22 1   
    13     9    10 ar  
    14     9    23 1   
    15    10    11 1   
    16    11    12 2   
    17    11    13 1   
    18    12    15 1   
    19    13    14 1   
    20    14    15 2   
    21    14    24 1   
    22    15    16 1   
    23    16    17 2   
    24    16    18 1   
    25    18    19 1   
    26    18    25 1   
    27    19    26 1   
@<TRIPOS>SUBSTRUCTURE
     1 IKY         1 TEMP              0 ****  ****    0 ROOT
