@<TRIPOS>MOLECULE
IKZ
   54    58     1     0     0
SMALL
abcg2


@<TRIPOS>ATOM
      1 C11         94.9640    -5.2760    14.7640 c3         1 IKZ       0.070900
      2 C16         93.2180   -12.7340     8.7770 cc         1 IKZ       0.139400
      3 C17         94.4510   -12.1340     8.6810 cd         1 IKZ      -0.274100
      4 C18         93.8850    -9.6660    11.8090 cc         1 IKZ       0.517900
      5 C19         95.1500    -9.5290    11.1640 cc         1 IKZ      -0.213000
      6 C20         95.4150   -10.3290    10.1020 cd         1 IKZ      -0.058000
      7 C21         92.6720   -13.7820     7.9150 ca         1 IKZ      -0.022800
      8 C22         93.4110   -14.2990     6.8490 ca         1 IKZ      -0.086500
      9 C23         91.3890   -14.2840     8.1430 ca         1 IKZ      -0.086500
     10 C24         90.8620   -15.2730     7.3260 ca         1 IKZ      -0.118000
     11 C25         92.8830   -15.2870     6.0340 ca         1 IKZ      -0.118000
     12 C26         91.6040   -15.7780     6.2670 ca         1 IKZ      -0.105000
     13 C28         88.6220    -9.9690    15.6620 ca         1 IKZ       0.337300
     14 C1          93.4670    -7.3320    14.7010 cc         1 IKZ      -0.150600
     15 C2          92.3880    -7.7240    15.5000 cd         1 IKZ      -0.250600
     16 N3          93.8930    -6.1540    15.2070 na         1 IKZ       0.180800
     17 C4          94.1900    -7.9590    13.5590 c          1 IKZ       0.648700
     18 N5          93.1760    -5.7610    16.2470 nc         1 IKZ      -0.508800
     19 C6          91.4950    -8.8900    15.3940 c          1 IKZ       0.644700
     20 C7          92.2720    -6.6940    16.4450 cd         1 IKZ       0.252900
     21 O8          95.3200    -7.6070    13.2810 o          1 IKZ      -0.598100
     22 N9          93.4880    -8.9060    12.8920 ns         1 IKZ      -0.486400
     23 O10         91.3290    -9.5110    14.3420 o          1 IKZ      -0.598100
     24 C12         93.2630   -11.3070    10.3640 cd         1 IKZ       0.424500
     25 N13         92.9850   -10.5300    11.4120 nd         1 IKZ      -0.682000
     26 N14         92.4980   -12.2190     9.8150 nc         1 IKZ      -0.273600
     27 N15         94.4790   -11.2180     9.6970 na         1 IKZ      -0.084400
     28 N27         90.8260    -9.2260    16.5020 ns         1 IKZ      -0.489900
     29 C29         89.8450   -10.2850    16.4910 c3         1 IKZ       0.053700
     30 N30         88.0270   -11.0080    15.0900 nb         1 IKZ      -0.661000
     31 C31         86.9250   -10.7960    14.3790 ca         1 IKZ       0.347900
     32 C32         86.3650    -9.5430    14.1950 ca         1 IKZ      -0.161000
     33 C33         86.9870    -8.4580    14.7970 ca         1 IKZ      -0.070000
     34 C34         88.1310    -8.6720    15.5460 ca         1 IKZ      -0.154000
     35 H1          94.8400    -4.3420    15.3020 h1         1 IKZ       0.071700
     36 H2          95.9370    -5.6990    14.9940 h1         1 IKZ       0.071700
     37 H3          94.8940    -5.0870    13.6980 h1         1 IKZ       0.071700
     38 H5          95.8880    -8.8180    11.4890 ha         1 IKZ       0.167000
     39 H6          96.3430   -10.2960     9.5510 h4         1 IKZ       0.147000
     40 H7          94.4100   -13.9310     6.6480 ha         1 IKZ       0.122500
     41 H8          90.8020   -13.8940     8.9640 ha         1 IKZ       0.122500
     42 H9          89.8650   -15.6490     7.5180 ha         1 IKZ       0.111500
     43 H10         93.4720   -15.6730     5.2120 ha         1 IKZ       0.111500
     44 H11         91.1920   -16.5490     5.6300 ha         1 IKZ       0.110000
     45 H12         91.5480    -6.5820    17.2390 h4         1 IKZ       0.041100
     46 H13         92.5550    -9.1490    13.2670 hn         1 IKZ       0.400500
     47 H14         91.0180    -8.7630    17.3740 hn         1 IKZ       0.324500
     48 H15         90.2830   -11.2180    16.1330 h1         1 IKZ       0.073200
     49 H16         89.5460   -10.4520    17.5260 h1         1 IKZ       0.073200
     50 H17         86.4690   -11.6710    13.9270 h4         1 IKZ       0.021100
     51 H18         85.4700    -9.4240    13.6000 ha         1 IKZ       0.124000
     52 H19         86.5850    -7.4600    14.6850 ha         1 IKZ       0.117000
     53 H20         88.6360    -7.8450    16.0290 ha         1 IKZ       0.117000
     54 H4          95.2810   -12.2640     8.0080 h4         1 IKZ       0.231000
@<TRIPOS>BOND
     1     1    16 1   
     2     1    35 1   
     3     1    36 1   
     4     1    37 1   
     5     2     3 2   
     6     2     7 1   
     7     2    26 1   
     8     3    27 1   
     9     3    54 1   
    10     4     5 1   
    11     4    22 1   
    12     4    25 2   
    13     5     6 2   
    14     5    38 1   
    15     6    27 1   
    16     6    39 1   
    17     7     8 ar  
    18     7     9 ar  
    19     8    11 ar  
    20     8    40 1   
    21     9    10 ar  
    22     9    41 1   
    23    10    12 ar  
    24    10    42 1   
    25    11    12 ar  
    26    11    43 1   
    27    12    44 1   
    28    13    29 1   
    29    13    30 ar  
    30    13    34 ar  
    31    14    15 2   
    32    14    16 1   
    33    14    17 1   
    34    15    19 1   
    35    15    20 1   
    36    16    18 1   
    37    17    21 2   
    38    17    22 1   
    39    18    20 2   
    40    19    23 2   
    41    19    28 1   
    42    20    45 1   
    43    22    46 1   
    44    24    25 1   
    45    24    26 2   
    46    24    27 1   
    47    28    29 1   
    48    28    47 1   
    49    29    48 1   
    50    29    49 1   
    51    30    31 ar  
    52    31    32 ar  
    53    31    50 1   
    54    32    33 ar  
    55    32    51 1   
    56    33    34 ar  
    57    33    52 1   
    58    34    53 1   
@<TRIPOS>SUBSTRUCTURE
     1 IKZ         1 TEMP              0 ****  ****    0 ROOT
