@<TRIPOS>MOLECULE
IKZ
   54    58     1     0     0
SMALL
No Charge or Current Charge


@<TRIPOS>ATOM
      1 C11         95.1530    -5.2210    14.9470 c3         1 IKZ       0.070900
      2 C16         93.0350   -12.6500     8.8350 cc         1 IKZ       0.139400
      3 C17         94.3060   -12.1270     8.6860 cd         1 IKZ      -0.274100
      4 C18         93.8450    -9.7080    11.8710 cc         1 IKZ       0.517900
      5 C19         95.1350    -9.6770    11.1970 cc         1 IKZ      -0.213000
      6 C20         95.4170   -10.4510    10.0790 cd         1 IKZ      -0.058000
      7 C21         92.5230   -13.7120     7.9540 ca         1 IKZ      -0.022800
      8 C22         93.1420   -14.0050     6.7160 ca         1 IKZ      -0.086500
      9 C23         91.3580   -14.4280     8.3110 ca         1 IKZ      -0.086500
     10 C24         90.8420   -15.4290     7.4680 ca         1 IKZ      -0.118000
     11 C25         92.6240   -15.0050     5.8740 ca         1 IKZ      -0.118000
     12 C26         91.4760   -15.7200     6.2510 ca         1 IKZ      -0.105000
     13 C28         88.6010    -9.9400    15.6460 ca         1 IKZ       0.337300
     14 C1          93.5840    -7.2600    14.7580 cc         1 IKZ      -0.150600
     15 C2          92.5430    -7.6700    15.6070 cd         1 IKZ      -0.250600
     16 N3          94.0510    -6.0940    15.3880 na         1 IKZ       0.180800
     17 C4          94.1470    -7.8330    13.4840 c          1 IKZ       0.648700
     18 N5          93.3800    -5.7590    16.5380 nc         1 IKZ      -0.508800
     19 C6          91.6230    -8.8450    15.5390 c          1 IKZ       0.644700
     20 C7          92.4890    -6.7120    16.6450 cd         1 IKZ       0.252900
     21 O8          95.0810    -7.2990    12.9080 o          1 IKZ      -0.598100
     22 N9          93.5540    -8.9540    12.9760 ns         1 IKZ      -0.486400
     23 O10         91.6340    -9.7020    14.6760 o          1 IKZ      -0.598100
     24 C12         93.1550   -11.2290    10.4230 cd         1 IKZ       0.424500
     25 N13         92.8260   -10.4900    11.5380 nd         1 IKZ      -0.682000
     26 N14         92.3310   -12.1120     9.8960 nc         1 IKZ      -0.273600
     27 N15         94.3200   -11.2090     9.7050 na         1 IKZ      -0.084400
     28 N27         90.7130    -8.8970    16.5720 ns         1 IKZ      -0.489900
     29 C29         89.6860    -9.9470    16.7280 c3         1 IKZ       0.053700
     30 N30         88.1970   -11.1490    15.1840 nb         1 IKZ      -0.661000
     31 C31         87.2360   -11.1800    14.2310 ca         1 IKZ       0.347900
     32 C32         86.6400   -10.0190    13.7110 ca         1 IKZ      -0.161000
     33 C33         87.0470    -8.7660    14.1930 ca         1 IKZ      -0.070000
     34 C34         88.0440    -8.7310    15.1800 ca         1 IKZ      -0.154000
     35 H1          95.2780    -4.3870    15.6480 h1         1 IKZ       0.071700
     36 H2          96.0840    -5.7980    14.9080 h1         1 IKZ       0.071700
     37 H3          94.9260    -4.8200    13.9520 h1         1 IKZ       0.071700
     38 H5          95.9250    -9.0510    11.5850 ha         1 IKZ       0.167000
     39 H6          96.3450   -10.5060     9.5210 h4         1 IKZ       0.147000
     40 H7          94.0220   -13.4580     6.3920 ha         1 IKZ       0.122500
     41 H8          90.8500   -14.2180     9.2490 ha         1 IKZ       0.122500
     42 H9          89.9490   -15.9760     7.7600 ha         1 IKZ       0.111500
     43 H10         93.1110   -15.2230     4.9270 ha         1 IKZ       0.111500
     44 H11         91.0760   -16.4930     5.5980 ha         1 IKZ       0.110000
     45 H12         91.8150    -6.6810    17.4920 h4         1 IKZ       0.041100
     46 H13         92.7240    -9.2470    13.4680 hn         1 IKZ       0.400500
     47 H14         90.7580    -8.1610    17.2640 hn         1 IKZ       0.324500
     48 H15         90.1870   -10.9230    16.7350 h1         1 IKZ       0.073200
     49 H16         89.2030    -9.8190    17.7050 h1         1 IKZ       0.073200
     50 H17         86.9350   -12.1650    13.8770 h4         1 IKZ       0.021100
     51 H18         85.8710   -10.0990    12.9470 ha         1 IKZ       0.124000
     52 H19         86.6020    -7.8480    13.8130 ha         1 IKZ       0.117000
     53 H20         88.3830    -7.7790    15.5810 ha         1 IKZ       0.117000
     54 H4          95.1260   -12.3250     8.0050 h4         1 IKZ       0.231000
@<TRIPOS>BOND
     1     1    16 1   
     2     1    35 1   
     3     1    36 1   
     4     1    37 1   
     5     2     3 2   
     6     2     7 1   
     7     2    26 1   
     8     3    27 1   
     9     3    54 1   
    10     4     5 1   
    11     4    22 1   
    12     4    25 2   
    13     5     6 2   
    14     5    38 1   
    15     6    27 1   
    16     6    39 1   
    17     7     8 ar  
    18     7     9 ar  
    19     8    11 ar  
    20     8    40 1   
    21     9    10 ar  
    22     9    41 1   
    23    10    12 ar  
    24    10    42 1   
    25    11    12 ar  
    26    11    43 1   
    27    12    44 1   
    28    13    29 1   
    29    13    30 ar  
    30    13    34 ar  
    31    14    15 2   
    32    14    16 1   
    33    14    17 1   
    34    15    19 1   
    35    15    20 1   
    36    16    18 1   
    37    17    21 2   
    38    17    22 1   
    39    18    20 2   
    40    19    23 2   
    41    19    28 1   
    42    20    45 1   
    43    22    46 1   
    44    24    25 1   
    45    24    26 2   
    46    24    27 1   
    47    28    29 1   
    48    28    47 1   
    49    29    48 1   
    50    29    49 1   
    51    30    31 ar  
    52    31    32 ar  
    53    31    50 1   
    54    32    33 ar  
    55    32    51 1   
    56    33    34 ar  
    57    33    52 1   
    58    34    53 1   
@<TRIPOS>SUBSTRUCTURE
     1 IKZ         1 TEMP              0 ****  ****    0 ROOT
