@<TRIPOS>MOLECULE
IL0
   24    23     1     0     0
SMALL
bcc


@<TRIPOS>ATOM
      1 N           52.6340    76.2080    67.8120 n8         1 IL0      -0.877800
      2 CA          52.8650    77.6300    67.5810 c3         1 IL0       0.150500
      3 C           51.5770    78.2280    66.9980 c3         1 IL0       0.345900
      4 O           51.3930    77.7850    65.6910 oh         1 IL0      -0.614300
      5 CB          54.1900    77.8040    66.8060 c3         1 IL0      -0.048700
      6 CG1         54.6020    79.2690    66.6260 c3         1 IL0      -0.077400
      7 CG2         54.2830    77.0290    65.4930 c3         1 IL0      -0.075100
      8 CD1         56.0820    79.4450    66.3050 c3         1 IL0      -0.088100
      9 OXT         51.5110    79.6240    67.1000 oh         1 IL0      -0.614300
     10 H           53.4520    75.8080    68.2570 hn         1 IL0       0.339300
     11 H2          51.8800    76.0900    68.4780 hn         1 IL0       0.339300
     12 HA          53.0100    78.1730    68.5290 h1         1 IL0       0.022700
     13 HB          54.9350    77.3650    67.4840 hc         1 IL0       0.032700
     14 HG12        54.0220    79.7260    65.8160 hc         1 IL0       0.036700
     15 HG13        54.3750    79.8290    67.5370 hc         1 IL0       0.036700
     16 HG21        55.3240    76.9340    65.1800 hc         1 IL0       0.040033
     17 HG22        53.8830    76.0220    65.5970 hc         1 IL0       0.040033
     18 HG23        53.7420    77.5250    64.6890 hc         1 IL0       0.040033
     19 HD11        56.3430    80.5010    66.2330 hc         1 IL0       0.033367
     20 HD12        56.7060    79.0020    67.0830 hc         1 IL0       0.033367
     21 HD13        56.3530    78.9790    65.3570 hc         1 IL0       0.033367
     22 HXT         52.2120    80.0200    66.5710 ho         1 IL0       0.411500
     23 H14         50.7510    77.8890    67.6410 h2         1 IL0       0.049700
     24 H15         50.5020    78.0220    65.4090 ho         1 IL0       0.411500
@<TRIPOS>BOND
     1     1     2 1   
     2     1    10 1   
     3     1    11 1   
     4     2     3 1   
     5     2     5 1   
     6     2    12 1   
     7     3     4 1   
     8     3     9 1   
     9     3    23 1   
    10     4    24 1   
    11     5     6 1   
    12     5     7 1   
    13     5    13 1   
    14     6     8 1   
    15     6    14 1   
    16     6    15 1   
    17     7    16 1   
    18     7    17 1   
    19     7    18 1   
    20     8    19 1   
    21     8    20 1   
    22     8    21 1   
    23     9    22 1   
@<TRIPOS>SUBSTRUCTURE
     1 IL0         1 TEMP              0 ****  ****    0 ROOT
