@<TRIPOS>MOLECULE
IL0
   24    23     1     0     0
SMALL
No Charge or Current Charge


@<TRIPOS>ATOM
      1 N           52.6460    76.1790    67.9290 n8         1 IL0      -0.877800
      2 CA          52.8300    77.6130    67.5670 c3         1 IL0       0.150500
      3 C           51.5120    78.2340    66.9310 c3         1 IL0       0.345900
      4 O           51.2360    77.7550    65.6250 oh         1 IL0      -0.614300
      5 CB          54.1960    77.8000    66.8040 c3         1 IL0      -0.048700
      6 CG1         54.6520    79.2850    66.6970 c3         1 IL0      -0.077400
      7 CG2         54.2710    77.0720    65.4330 c3         1 IL0      -0.075100
      8 CD1         56.1400    79.4730    66.3250 c3         1 IL0      -0.088100
      9 OXT         51.5630    79.6460    66.8350 oh         1 IL0      -0.614300
     10 H           53.4730    75.8560    68.4400 hn         1 IL0       0.339300
     11 H2          51.8810    76.0950    68.6050 hn         1 IL0       0.339300
     12 HA          52.9560    78.1250    68.5310 h1         1 IL0       0.022700
     13 HB          54.9460    77.3100    67.4390 hc         1 IL0       0.032700
     14 HG12        54.0500    79.8090    65.9460 hc         1 IL0       0.036700
     15 HG13        54.4770    79.7850    67.6580 hc         1 IL0       0.036700
     16 HG21        55.3090    76.9930    65.0900 hc         1 IL0       0.040033
     17 HG22        53.8740    76.0520    65.4980 hc         1 IL0       0.040033
     18 HG23        53.7070    77.6120    64.6640 hc         1 IL0       0.040033
     19 HD11        56.4040    80.5370    66.3490 hc         1 IL0       0.033367
     20 HD12        56.7890    78.9460    67.0350 hc         1 IL0       0.033367
     21 HD13        56.3490    79.0990    65.3160 hc         1 IL0       0.033367
     22 HXT         52.4390    79.8510    66.4570 ho         1 IL0       0.411500
     23 H14         50.6640    77.9730    67.5770 h2         1 IL0       0.049700
     24 H15         50.2640    77.8060    65.5210 ho         1 IL0       0.411500
@<TRIPOS>BOND
     1     1     2 1   
     2     1    10 1   
     3     1    11 1   
     4     2     3 1   
     5     2     5 1   
     6     2    12 1   
     7     3     4 1   
     8     3     9 1   
     9     3    23 1   
    10     4    24 1   
    11     5     6 1   
    12     5     7 1   
    13     5    13 1   
    14     6     8 1   
    15     6    14 1   
    16     6    15 1   
    17     7    16 1   
    18     7    17 1   
    19     7    18 1   
    20     8    19 1   
    21     8    20 1   
    22     8    21 1   
    23     9    22 1   
@<TRIPOS>SUBSTRUCTURE
     1 IL0         1 TEMP              0 ****  ****    0 ROOT
