@<TRIPOS>MOLECULE
IL1
   96   101     1     0     0
SMALL
No Charge or Current Charge


@<TRIPOS>ATOM
      1 C1         175.3400   152.9460   154.5960 ca         1 IL1      -0.191600
      2 O1         173.9200   151.1760   153.8470 o          1 IL1      -0.608100
      3 O2         166.7050   151.3170   153.4820 o          1 IL1      -0.722500
      4 C2         173.9850   152.3290   154.2650 c          1 IL1       0.620700
      5 O3         166.4250   153.3850   153.9870 o          1 IL1      -0.722500
      6 C3         171.4630   152.8850   154.2750 ca         1 IL1      -0.066000
      7 N          172.8560   153.1190   154.4530 ns         1 IL1      -0.123000
      8 C          175.5470   154.3090   154.9360 ca         1 IL1       0.179100
      9 O          174.5440   155.2280   154.9240 oh         1 IL1      -0.543100
     10 C10        176.4750   152.1010   154.5500 ca         1 IL1      -0.008000
     11 C11        177.7630   152.5880   154.8260 ca         1 IL1      -0.175000
     12 C12        177.9590   153.9360   155.1760 ca         1 IL1       0.023000
     13 C13        180.5020   153.9620   155.6040 c          1 IL1       0.519600
     14 C14        181.6200   154.9740   155.9050 ca         1 IL1       0.259500
     15 C15        181.3570   156.3670   155.9880 ca         1 IL1      -0.108000
     16 C16        182.4020   157.2640   156.2690 ca         1 IL1      -0.146000
     17 C17        183.7000   156.7630   156.4630 ca         1 IL1      -0.053000
     18 C18        186.1040   157.5270   156.9640 c          1 IL1       0.598100
     19 C19        186.9010   158.8330   157.2730 c3         1 IL1       0.024700
     20 C20        187.7310   158.7250   158.5770 c3         1 IL1      -0.097700
     21 C21        188.6110   159.9220   158.8170 cc         1 IL1       0.199300
     22 C22        188.3640   160.9980   159.6100 cd         1 IL1      -0.211000
     23 C24        185.2210   162.3160   156.8640 ca         1 IL1       0.244500
     24 C25        185.2570   163.4950   156.0890 ca         1 IL1      -0.070000
     25 C26        184.4200   164.5770   156.4180 ca         1 IL1      -0.110000
     26 C27        183.5570   164.4530   157.5290 ca         1 IL1      -0.049000
     27 C28        182.4060   166.7600   157.4900 c          1 IL1       0.620700
     28 C29        181.3520   167.5500   158.2500 ca         1 IL1      -0.141600
     29 C30        181.0340   168.8640   157.8320 ca         1 IL1      -0.075500
     30 C31        180.0650   169.6230   158.5100 ca         1 IL1      -0.079000
     31 C32        179.3920   169.0850   159.6210 ca         1 IL1       0.014000
     32 C33        178.4000   169.8610   160.3140 cg         1 IL1       0.312000
     33 C34        179.6970   167.7800   160.0470 ca         1 IL1      -0.079000
     34 C35        180.6660   167.0170   159.3710 ca         1 IL1      -0.075500
     35 C36        183.5820   163.2410   158.2500 ca         1 IL1       0.283900
     36 C37        183.8910   155.3640   156.3660 ca         1 IL1       0.317900
     37 C38        176.8390   154.7860   155.2470 ca         1 IL1      -0.075900
     38 C39        176.6310   156.5910   156.9040 c3         1 IL1       0.160300
     39 C4         170.5940   153.9700   154.4820 ca         1 IL1      -0.172500
     40 C40        176.7410   158.1260   156.8670 c3         1 IL1      -0.105100
     41 C41        177.5520   155.9590   157.9700 c3         1 IL1      -0.105100
     42 C5         169.2040   153.8240   154.3290 ca         1 IL1      -0.070500
     43 C6         168.6460   152.5780   153.9650 ca         1 IL1      -0.147600
     44 C7         167.1440   152.4140   153.7990 c          1 IL1       0.715600
     45 C8         169.5220   151.4870   153.7610 ca         1 IL1      -0.070500
     46 C9         170.9120   151.6370   153.9140 ca         1 IL1      -0.172500
     47 N1         179.2300   154.5050   155.4560 ns         1 IL1      -0.146000
     48 N10        182.8860   154.4960   156.0950 nb         1 IL1      -0.600000
     49 N2         184.7400   157.6930   156.7480 ns         1 IL1      -0.137000
     50 N3         189.8300   160.0410   158.2150 nc         1 IL1      -0.347000
     51 N4         190.3750   161.1680   158.5970 nd         1 IL1      -0.190800
     52 N5         189.4930   161.7770   159.4550 na         1 IL1      -0.009200
     53 N6         186.0280   160.0360   157.3280 ns         1 IL1      -0.508900
     54 N7         182.6630   165.4770   157.9630 ns         1 IL1      -0.138000
     55 N8         177.5980   170.4890   160.8860 n1         1 IL1      -0.429000
     56 N9         184.3840   162.1970   157.9380 nb         1 IL1      -0.656000
     57 O4         180.7200   152.7550   155.5110 o          1 IL1      -0.533100
     58 O5         186.6590   156.4340   156.9290 o          1 IL1      -0.565100
     59 O6         186.9050   161.1540   155.5490 o          1 IL1      -0.572100
     60 O7         182.9840   167.2440   156.5230 o          1 IL1      -0.558100
     61 O8         177.0220   156.1130   155.5980 os         1 IL1      -0.388100
     62 H2         173.0690   154.0500   154.7860 hn         1 IL1       0.159000
     63 H3         174.9850   156.0970   155.0430 ho         1 IL1       0.484000
     64 H4         176.3680   151.0500   154.2880 ha         1 IL1       0.150000
     65 H5         178.5960   151.8960   154.7540 ha         1 IL1       0.149000
     66 H6         180.3590   156.7680   155.8360 ha         1 IL1       0.133000
     67 H7         182.2020   158.3320   156.3330 ha         1 IL1       0.120000
     68 H8         187.6010   158.9410   156.4330 h1         1 IL1       0.122700
     69 H9         187.0540   158.5900   159.4290 hc         1 IL1       0.075700
     70 H10        188.3560   157.8250   158.5360 hc         1 IL1       0.075700
     71 H11        187.5190   161.2580   160.2350 h4         1 IL1       0.167000
     72 H12        185.9300   163.5690   155.2390 ha         1 IL1       0.155000
     73 H13        184.4610   165.4760   155.8110 ha         1 IL1       0.160000
     74 H14        181.5390   169.3060   156.9750 ha         1 IL1       0.131500
     75 H15        179.8380   170.6320   158.1690 ha         1 IL1       0.135000
     76 H16        179.1820   167.3520   160.9060 ha         1 IL1       0.135000
     77 H17        180.8690   166.0130   159.7380 ha         1 IL1       0.131500
     78 H18        182.9340   163.1000   159.1140 h4         1 IL1       0.019100
     79 H19        184.8650   154.9040   156.5060 h4         1 IL1       0.058100
     80 H20        175.5910   156.3190   157.1290 h1         1 IL1       0.051700
     81 H21        170.9960   154.9410   154.7640 ha         1 IL1       0.102500
     82 H23        176.4540   158.5550   157.8340 hc         1 IL1       0.044700
     83 H24        177.7680   158.4380   156.6430 hc         1 IL1       0.044700
     84 H22        176.0770   158.5420   156.1000 hc         1 IL1       0.044700
     85 H25        177.2980   156.3400   158.9660 hc         1 IL1       0.044700
     86 H26        177.4370   154.8690   157.9900 hc         1 IL1       0.044700
     87 H27        178.6040   156.1980   157.7720 hc         1 IL1       0.044700
     88 H28        168.5610   154.6860   154.4960 ha         1 IL1       0.126500
     89 H29        169.1270   150.5120   153.4820 ha         1 IL1       0.126500
     90 H30        171.5390   150.7670   153.7520 ha         1 IL1       0.102500
     91 H31        179.1840   155.5080   155.5760 hn         1 IL1       0.166000
     92 H32        184.4310   158.6550   156.7940 hn         1 IL1       0.166000
     93 H33        189.7000   162.6750   159.8860 hn         1 IL1       0.377000
     94 H34        185.3840   160.1510   158.1080 hn         1 IL1       0.338500
     95 H35        182.1110   165.2170   158.7680 hn         1 IL1       0.160000
     96 C23        186.1340   161.1410   156.5010 c          1 IL1       0.510600
@<TRIPOS>BOND
     1     1     4 1   
     2     1     8 ar  
     3     1    10 ar  
     4     2     4 2   
     5     3    44 1   
     6     4     7 1   
     7     5    44 1   
     8     6     7 1   
     9     6    39 ar  
    10     6    46 ar  
    11     7    62 1   
    12     8     9 1   
    13     8    37 ar  
    14     9    63 1   
    15    10    11 ar  
    16    10    64 1   
    17    11    12 ar  
    18    11    65 1   
    19    12    37 ar  
    20    12    47 1   
    21    13    14 1   
    22    13    47 1   
    23    13    57 2   
    24    14    15 ar  
    25    14    48 ar  
    26    15    16 ar  
    27    15    66 1   
    28    16    17 ar  
    29    16    67 1   
    30    17    36 ar  
    31    17    49 1   
    32    18    19 1   
    33    18    49 1   
    34    18    58 2   
    35    19    20 1   
    36    19    53 1   
    37    19    68 1   
    38    20    21 1   
    39    20    69 1   
    40    20    70 1   
    41    21    22 2   
    42    21    50 1   
    43    22    52 1   
    44    22    71 1   
    45    23    24 ar  
    46    23    56 ar  
    47    23    96 1   
    48    24    25 ar  
    49    24    72 1   
    50    25    26 ar  
    51    25    73 1   
    52    26    35 ar  
    53    26    54 1   
    54    27    28 1   
    55    27    54 1   
    56    27    60 2   
    57    28    29 ar  
    58    28    34 ar  
    59    29    30 ar  
    60    29    74 1   
    61    30    31 ar  
    62    30    75 1   
    63    31    32 1   
    64    31    33 ar  
    65    32    55 3   
    66    33    34 ar  
    67    33    76 1   
    68    34    77 1   
    69    35    56 ar  
    70    35    78 1   
    71    36    48 ar  
    72    36    79 1   
    73    37    61 1   
    74    38    40 1   
    75    38    41 1   
    76    38    61 1   
    77    38    80 1   
    78    39    42 ar  
    79    39    81 1   
    80    40    82 1   
    81    40    83 1   
    82    40    84 1   
    83    41    85 1   
    84    41    86 1   
    85    41    87 1   
    86    42    43 ar  
    87    42    88 1   
    88    43    44 1   
    89    43    45 ar  
    90    45    46 ar  
    91    45    89 1   
    92    46    90 1   
    93    47    91 1   
    94    49    92 1   
    95    50    51 2   
    96    51    52 1   
    97    52    93 1   
    98    53    94 1   
    99    53    96 1   
   100    54    95 1   
   101    59    96 2   
@<TRIPOS>SUBSTRUCTURE
     1 IL1         1 TEMP              0 ****  ****    0 ROOT
