@<TRIPOS>MOLECULE
IL1
   96   101     1     0     0
SMALL
abcg2


@<TRIPOS>ATOM
      1 C1         175.3390   153.4870   154.4050 ca         1 IL1      -0.191600
      2 O1         173.9720   152.0330   153.1480 o          1 IL1      -0.608100
      3 O2         166.9430   151.6830   152.9860 o          1 IL1      -0.722500
      4 C2         174.0160   152.9370   153.9680 c          1 IL1       0.620700
      5 O3         166.5440   153.2310   154.5430 o          1 IL1      -0.722500
      6 C3         171.5650   153.1750   154.3050 ca         1 IL1      -0.066000
      7 N          172.9090   153.4810   154.5300 ns         1 IL1      -0.123000
      8 C          175.5480   154.6210   155.2010 ca         1 IL1       0.179100
      9 O          174.5010   155.3290   155.6620 oh         1 IL1      -0.543100
     10 C10        176.4740   152.8220   153.9380 ca         1 IL1      -0.008000
     11 C11        177.7580   153.2450   154.2030 ca         1 IL1      -0.175000
     12 C12        177.9560   154.3810   154.9910 ca         1 IL1       0.023000
     13 C13        180.4310   154.4050   155.1460 c          1 IL1       0.519600
     14 C14        181.5380   155.3600   155.4790 ca         1 IL1       0.259500
     15 C15        181.4700   156.7160   155.1820 ca         1 IL1      -0.108000
     16 C16        182.5320   157.5230   155.5330 ca         1 IL1      -0.146000
     17 C17        183.6350   156.9700   156.1780 ca         1 IL1      -0.053000
     18 C18        185.8210   157.5620   157.1890 c          1 IL1       0.598100
     19 C19        186.6850   158.7940   157.4740 c3         1 IL1       0.024700
     20 C20        187.4880   158.6050   158.7700 c3         1 IL1      -0.097700
     21 C21        188.3650   159.7760   159.0330 cc         1 IL1       0.199300
     22 C22        188.1550   160.8530   159.8550 cd         1 IL1      -0.211000
     23 C24        185.3280   162.2780   157.0530 ca         1 IL1       0.244500
     24 C25        185.4730   163.4490   156.3290 ca         1 IL1      -0.070000
     25 C26        184.6300   164.5180   156.5830 ca         1 IL1      -0.110000
     26 C27        183.6540   164.3750   157.5680 ca         1 IL1      -0.049000
     27 C28        182.4200   166.4990   157.2890 c          1 IL1       0.620700
     28 C29        181.3040   167.2830   157.9060 ca         1 IL1      -0.141600
     29 C30        180.4990   168.0360   157.0560 ca         1 IL1      -0.075500
     30 C31        179.4440   168.7730   157.5610 ca         1 IL1      -0.079000
     31 C32        179.2060   168.7750   158.9350 ca         1 IL1       0.014000
     32 C33        178.1130   169.5270   159.4650 cg         1 IL1       0.312000
     33 C34        180.0240   168.0490   159.7970 ca         1 IL1      -0.079000
     34 C35        181.0680   167.3040   159.2790 ca         1 IL1      -0.075500
     35 C36        183.6050   163.1550   158.2580 ca         1 IL1       0.283900
     36 C37        183.6210   155.5860   156.4050 ca         1 IL1       0.317900
     37 C38        176.8410   155.0380   155.5180 ca         1 IL1      -0.075900
     38 C39        176.9080   155.9780   157.7210 c3         1 IL1       0.160300
     39 C4         170.6360   153.8980   155.0620 ca         1 IL1      -0.172500
     40 C40        176.8050   157.3710   158.3020 c3         1 IL1      -0.105100
     41 C41        178.0840   155.2040   158.2810 c3         1 IL1      -0.105100
     42 C5         169.2790   153.6890   154.9090 ca         1 IL1      -0.070500
     43 C6         168.7890   152.7530   154.0010 ca         1 IL1      -0.147600
     44 C7         167.2910   152.5340   153.8280 c          1 IL1       0.715600
     45 C8         169.7210   152.0350   153.2590 ca         1 IL1      -0.070500
     46 C9         171.0890   152.2280   153.3960 ca         1 IL1      -0.172500
     47 N1         179.1910   154.9560   155.2570 ns         1 IL1      -0.146000
     48 N10        182.6020   154.8200   156.0570 nb         1 IL1      -0.600000
     49 N2         184.6530   157.8340   156.5550 ns         1 IL1      -0.137000
     50 N3         189.5500   159.9620   158.4080 nc         1 IL1      -0.347000
     51 N4         190.0720   161.0740   158.7980 nd         1 IL1      -0.190800
     52 N5         189.2430   161.6150   159.6670 na         1 IL1      -0.009200
     53 N6         185.9110   160.0060   157.5050 ns         1 IL1      -0.508900
     54 N7         182.7220   165.3380   157.9310 ns         1 IL1      -0.138000
     55 N8         177.2290   170.1280   159.8930 n1         1 IL1      -0.429000
     56 N9         184.4100   162.1490   158.0060 nb         1 IL1      -0.656000
     57 O4         180.6500   153.2550   154.8270 o          1 IL1      -0.533100
     58 O5         186.1930   156.4480   157.4950 o          1 IL1      -0.565100
     59 O6         187.0780   161.1430   155.9220 o          1 IL1      -0.572100
     60 O7         182.9730   166.8800   156.2770 o          1 IL1      -0.558100
     61 O8         177.0020   156.1550   156.2800 os         1 IL1      -0.388100
     62 H2         173.0620   154.2340   155.1860 hn         1 IL1       0.159000
     63 H3         174.7850   156.1920   155.9950 ho         1 IL1       0.484000
     64 H4         176.3390   151.9460   153.3190 ha         1 IL1       0.150000
     65 H5         178.5930   152.7030   153.7910 ha         1 IL1       0.149000
     66 H6         180.6210   157.1480   154.6690 ha         1 IL1       0.133000
     67 H7         182.5040   158.5840   155.3110 ha         1 IL1       0.120000
     68 H8         187.3860   158.8780   156.6370 h1         1 IL1       0.122700
     69 H9         186.8010   158.4650   159.6070 hc         1 IL1       0.075700
     70 H10        188.0900   157.7010   158.6890 hc         1 IL1       0.075700
     71 H11        187.3560   161.1160   160.5260 h4         1 IL1       0.167000
     72 H12        186.2340   163.5350   155.5650 ha         1 IL1       0.155000
     73 H13        184.7380   165.4300   156.0210 ha         1 IL1       0.160000
     74 H14        180.6840   168.0360   155.9910 ha         1 IL1       0.131500
     75 H15        178.8090   169.3420   156.8960 ha         1 IL1       0.135000
     76 H16        179.8460   168.0670   160.8630 ha         1 IL1       0.135000
     77 H17        181.7030   166.7610   159.9680 ha         1 IL1       0.131500
     78 H18        182.8680   163.0080   159.0430 h4         1 IL1       0.019100
     79 H19        184.4530   155.0900   156.8820 h4         1 IL1       0.058100
     80 H20        175.9880   155.4250   157.9430 h1         1 IL1       0.051700
     81 H21        170.9860   154.6340   155.7770 ha         1 IL1       0.102500
     82 H23        176.6890   157.3100   159.3830 hc         1 IL1       0.044700
     83 H24        177.7040   157.9530   158.0930 hc         1 IL1       0.044700
     84 H22        175.9430   157.9070   157.9030 hc         1 IL1       0.044700
     85 H25        177.9470   155.0880   159.3570 hc         1 IL1       0.044700
     86 H26        178.1600   154.2020   157.8580 hc         1 IL1       0.044700
     87 H27        179.0270   155.7290   158.1200 hc         1 IL1       0.044700
     88 H28        168.5870   154.2650   155.5080 ha         1 IL1       0.126500
     89 H29        169.3730   151.2980   152.5470 ha         1 IL1       0.126500
     90 H30        171.7670   151.6470   152.7940 ha         1 IL1       0.102500
     91 H31        179.1380   155.8710   155.6810 hn         1 IL1       0.166000
     92 H32        184.4790   158.8120   156.3640 hn         1 IL1       0.166000
     93 H33        189.4700   162.4980   160.1020 hn         1 IL1       0.377000
     94 H34        185.2330   160.1330   158.2470 hn         1 IL1       0.338500
     95 H35        182.1180   165.0710   158.6950 hn         1 IL1       0.160000
     96 C23        186.2040   161.0990   156.7690 c          1 IL1       0.510600
@<TRIPOS>BOND
     1     1     4 1   
     2     1     8 ar  
     3     1    10 ar  
     4     2     4 2   
     5     3    44 1   
     6     4     7 1   
     7     5    44 1   
     8     6     7 1   
     9     6    39 ar  
    10     6    46 ar  
    11     7    62 1   
    12     8     9 1   
    13     8    37 ar  
    14     9    63 1   
    15    10    11 ar  
    16    10    64 1   
    17    11    12 ar  
    18    11    65 1   
    19    12    37 ar  
    20    12    47 1   
    21    13    14 1   
    22    13    47 1   
    23    13    57 2   
    24    14    15 ar  
    25    14    48 ar  
    26    15    16 ar  
    27    15    66 1   
    28    16    17 ar  
    29    16    67 1   
    30    17    36 ar  
    31    17    49 1   
    32    18    19 1   
    33    18    49 1   
    34    18    58 2   
    35    19    20 1   
    36    19    53 1   
    37    19    68 1   
    38    20    21 1   
    39    20    69 1   
    40    20    70 1   
    41    21    22 2   
    42    21    50 1   
    43    22    52 1   
    44    22    71 1   
    45    23    24 ar  
    46    23    56 ar  
    47    23    96 1   
    48    24    25 ar  
    49    24    72 1   
    50    25    26 ar  
    51    25    73 1   
    52    26    35 ar  
    53    26    54 1   
    54    27    28 1   
    55    27    54 1   
    56    27    60 2   
    57    28    29 ar  
    58    28    34 ar  
    59    29    30 ar  
    60    29    74 1   
    61    30    31 ar  
    62    30    75 1   
    63    31    32 1   
    64    31    33 ar  
    65    32    55 3   
    66    33    34 ar  
    67    33    76 1   
    68    34    77 1   
    69    35    56 ar  
    70    35    78 1   
    71    36    48 ar  
    72    36    79 1   
    73    37    61 1   
    74    38    40 1   
    75    38    41 1   
    76    38    61 1   
    77    38    80 1   
    78    39    42 ar  
    79    39    81 1   
    80    40    82 1   
    81    40    83 1   
    82    40    84 1   
    83    41    85 1   
    84    41    86 1   
    85    41    87 1   
    86    42    43 ar  
    87    42    88 1   
    88    43    44 1   
    89    43    45 ar  
    90    45    46 ar  
    91    45    89 1   
    92    46    90 1   
    93    47    91 1   
    94    49    92 1   
    95    50    51 2   
    96    51    52 1   
    97    52    93 1   
    98    53    94 1   
    99    53    96 1   
   100    54    95 1   
   101    59    96 2   
@<TRIPOS>SUBSTRUCTURE
     1 IL1         1 TEMP              0 ****  ****    0 ROOT
