@<TRIPOS>MOLECULE
IL2
   57    58     1     0     0
SMALL
abcg2


@<TRIPOS>ATOM
      1 C1          -0.6160    -0.0320     0.7500 c5         1 IL2      -0.061700
      2 O1           2.0340    -2.4940     1.2290 oh         1 IL2      -0.658000
      3 C2          -1.4490    -1.2820     1.1510 c5         1 IL2      -0.065700
      4 O2           4.0380     2.2600     0.7880 oh         1 IL2      -0.658000
      5 C3           0.7780    -0.5860     0.4480 c5         1 IL2      -0.032500
      6 C4          -0.4330    -2.3880     1.4780 c5         1 IL2      -0.109400
      7 C5           0.9250    -1.6780     1.5090 c5         1 IL2       0.167300
      8 C6          -1.3510     0.6320    -0.4280 c5         1 IL2      -0.027200
      9 C7          -2.3580    -1.5380    -0.0570 c5         1 IL2      -0.026200
     10 C8          -2.6290    -0.1580    -0.5850 c2         1 IL2      -0.166400
     11 C9           1.8770     0.4180     0.4920 c2         1 IL2      -0.180200
     12 C10         -3.7820     0.3400    -1.0280 c2         1 IL2      -0.169200
     13 C11          2.8470     0.5100    -0.4100 c2         1 IL2      -0.260200
     14 C12         -5.0870    -0.3810    -1.1570 c3         1 IL2      -0.055200
     15 C13          4.0410     1.4180    -0.3390 c3         1 IL2       0.208500
     16 C14         -6.1880     0.2640    -0.3120 c3         1 IL2      -0.050400
     17 C15          5.3360     0.5880    -0.4530 c3         1 IL2      -0.087700
     18 C16         -7.5280    -0.4360    -0.4640 c3         1 IL2      -0.205400
     19 C17          6.5550     1.5200    -0.5300 c3         1 IL2       0.013700
     20 C18          5.4720    -0.4290     0.6750 c3         1 IL2      -0.094100
     21 C19         -8.6980     0.1640     0.3370 c          1 IL2       0.717000
     22 C20          7.7930     0.8110    -0.8360 c1         1 IL2      -0.131100
     23 C21          8.8050     0.2120    -1.0980 c1         1 IL2      -0.158100
     24 C22         10.0260    -0.5150    -1.4130 c3         1 IL2       0.001000
     25 H1          -0.5410     0.6600     1.5950 hc         1 IL2       0.050700
     26 HO1          2.1660    -3.0920     1.9710 ho         1 IL2       0.438000
     27 H2          -2.0750    -1.0540     2.0160 hc         1 IL2       0.063700
     28 H3           0.7630    -1.0780    -0.5340 hc         1 IL2       0.068700
     29 H4          -0.6520    -2.9050     2.4150 hc         1 IL2       0.047200
     30 H4A         -0.4180    -3.1450     0.6880 hc         1 IL2       0.047200
     31 H5           1.0450    -1.1880     2.4880 h1         1 IL2       0.026700
     32 H6          -1.5440     1.6930    -0.2660 hc         1 IL2       0.045200
     33 H6A         -0.7450     0.5610    -1.3380 hc         1 IL2       0.045200
     34 H7          -1.8120    -2.1220    -0.8090 hc         1 IL2       0.048700
     35 H7A         -3.2550    -2.1030     0.1980 hc         1 IL2       0.048700
     36 H9           1.8710     1.0750     1.3600 ha         1 IL2       0.167000
     37 H10         -3.8020     1.3900    -1.3150 ha         1 IL2       0.164000
     38 H11          2.8330    -0.1540    -1.2710 ha         1 IL2       0.177000
     39 H12         -5.4000    -0.3750    -2.2080 hc         1 IL2       0.034200
     40 H12A        -4.9790    -1.4340    -0.8830 hc         1 IL2       0.034200
     41 H13          4.0110     2.0920    -1.2040 h1         1 IL2       0.074700
     42 H14         -5.8800     0.2580     0.7360 hc         1 IL2       0.041200
     43 H14A        -6.2860     1.3160    -0.5920 hc         1 IL2       0.041200
     44 H15          5.2730     0.0440    -1.4010 hc         1 IL2       0.058700
     45 H16         -7.8160    -0.4540    -1.5220 hc         1 IL2       0.014700
     46 H16A        -7.4250    -1.4910    -0.1840 hc         1 IL2       0.014700
     47 H17          6.3840     2.2790    -1.3000 hc         1 IL2       0.061200
     48 H17A         6.6670     2.0600     0.4130 hc         1 IL2       0.061200
     49 H18          4.6130    -1.1000     0.7100 hc         1 IL2       0.039367
     50 H18A         6.3670    -1.0380     0.5440 hc         1 IL2       0.039367
     51 H18B         5.5580     0.0550     1.6510 hc         1 IL2       0.039367
     52 H22         10.8960     0.1430    -1.3860 hc         1 IL2       0.046033
     53 H22A        10.2000    -1.3220    -0.7010 hc         1 IL2       0.046033
     54 H22B         9.9770    -0.9570    -2.4090 hc         1 IL2       0.046033
     55 O3          -9.7910    -0.4340     0.2380 o          1 IL2      -0.742500
     56 O4          -8.4790     1.1900     1.0110 o          1 IL2      -0.742500
     57 HO2          4.0340     1.7160     1.5830 ho         1 IL2       0.442000
@<TRIPOS>BOND
     1     1     3 1   
     2     1     5 1   
     3     1     8 1   
     4     1    25 1   
     5     2     7 1   
     6     2    26 1   
     7     3     6 1   
     8     3     9 1   
     9     3    27 1   
    10     4    15 1   
    11     4    57 1   
    12     5     7 1   
    13     5    11 1   
    14     5    28 1   
    15     6     7 1   
    16     6    29 1   
    17     6    30 1   
    18     7    31 1   
    19     8    10 1   
    20     8    32 1   
    21     8    33 1   
    22     9    10 1   
    23     9    34 1   
    24     9    35 1   
    25    10    12 2   
    26    11    13 2   
    27    11    36 1   
    28    12    14 1   
    29    12    37 1   
    30    13    15 1   
    31    13    38 1   
    32    14    16 1   
    33    14    39 1   
    34    14    40 1   
    35    15    17 1   
    36    15    41 1   
    37    16    18 1   
    38    16    42 1   
    39    16    43 1   
    40    17    19 1   
    41    17    20 1   
    42    17    44 1   
    43    18    21 1   
    44    18    45 1   
    45    18    46 1   
    46    19    22 1   
    47    19    47 1   
    48    19    48 1   
    49    20    49 1   
    50    20    50 1   
    51    20    51 1   
    52    21    55 1   
    53    21    56 1   
    54    22    23 3   
    55    23    24 1   
    56    24    52 1   
    57    24    53 1   
    58    24    54 1   
@<TRIPOS>SUBSTRUCTURE
     1 IL2         1 TEMP              0 ****  ****    0 ROOT
