@<TRIPOS>MOLECULE
IL2
   57    58     1     0     0
SMALL
No Charge or Current Charge


@<TRIPOS>ATOM
      1 C1          -0.4760    -0.0290     2.0330 c5         1 IL2      -0.061700
      2 O1           1.5760    -3.0450     1.5310 oh         1 IL2      -0.658000
      3 C2          -1.5150    -1.1540     2.2940 c5         1 IL2      -0.065700
      4 O2           3.7710     2.3130     0.9120 oh         1 IL2      -0.658000
      5 C3           0.6260    -0.7700     1.2190 c5         1 IL2      -0.032500
      6 C4          -0.6400    -2.4490     2.4740 c5         1 IL2      -0.109400
      7 C5           0.8270    -2.0020     2.1510 c5         1 IL2       0.167300
      8 C6          -1.2340     0.9760     1.1150 c5         1 IL2      -0.027200
      9 C7          -2.3140    -1.2540     0.9480 c5         1 IL2      -0.026200
     10 C8          -2.2540     0.1450     0.3570 c2         1 IL2      -0.166400
     11 C9           1.8940     0.0840     1.1880 c2         1 IL2      -0.180200
     12 C10         -2.9700     0.5930    -0.6880 c2         1 IL2      -0.169200
     13 C11          2.3040     0.6200     0.0210 c2         1 IL2      -0.260200
     14 C12         -3.9780    -0.1990    -1.5000 c3         1 IL2      -0.055200
     15 C13          3.5320     1.4770    -0.2220 c3         1 IL2       0.208500
     16 C14         -5.4320     0.1920    -1.1610 c3         1 IL2      -0.050400
     17 C15          4.8040     0.6460    -0.5690 c3         1 IL2      -0.087700
     18 C16         -6.4840    -0.5970    -1.9770 c3         1 IL2      -0.205400
     19 C17          5.9670     1.5670    -1.0430 c3         1 IL2       0.013700
     20 C18          5.2450    -0.3200     0.5700 c3         1 IL2      -0.094100
     21 C19         -7.9040    -0.1490    -1.5850 c          1 IL2       0.717000
     22 C20          7.0810     0.8410    -1.6730 c1         1 IL2      -0.131100
     23 C21          7.9840     0.2180    -2.1820 c1         1 IL2      -0.158100
     24 C22          9.0680    -0.5670    -2.7830 c3         1 IL2       0.001000
     25 H1          -0.0940     0.4260     2.9550 hc         1 IL2       0.050700
     26 HO1          1.6280    -3.7790     2.1810 ho         1 IL2       0.438000
     27 H2          -2.1670    -0.9360     3.1490 hc         1 IL2       0.063700
     28 H3           0.3050    -1.0690     0.2140 hc         1 IL2       0.068700
     29 H4          -0.7040    -2.8260     3.5010 hc         1 IL2       0.047200
     30 H4A         -0.9730    -3.2720     1.8310 hc         1 IL2       0.047200
     31 H5           1.3250    -1.6890     3.0810 h1         1 IL2       0.026700
     32 H6          -1.7520     1.7250     1.7240 hc         1 IL2       0.045200
     33 H6A         -0.5650     1.5260     0.4420 hc         1 IL2       0.045200
     34 H7          -1.8750    -1.9660     0.2400 hc         1 IL2       0.048700
     35 H7A         -3.3470    -1.5790     1.1180 hc         1 IL2       0.048700
     36 H9           2.4630     0.2440     2.1050 ha         1 IL2       0.167000
     37 H10         -2.8380     1.6210    -1.0310 ha         1 IL2       0.164000
     38 H11          1.7270     0.4470    -0.8890 ha         1 IL2       0.177000
     39 H12         -3.7970    -0.0320    -2.5690 hc         1 IL2       0.034200
     40 H12A        -3.8520    -1.2750    -1.3340 hc         1 IL2       0.034200
     41 H13          3.3130     2.1130    -1.0930 h1         1 IL2       0.074700
     42 H14         -5.6050     0.0260    -0.0900 hc         1 IL2       0.041200
     43 H14A        -5.5650     1.2670    -1.3420 hc         1 IL2       0.041200
     44 H15          4.5270     0.0180    -1.4250 hc         1 IL2       0.058700
     45 H16         -6.2850    -0.3640    -3.0300 hc         1 IL2       0.014700
     46 H16A        -6.3310    -1.6530    -1.7230 hc         1 IL2       0.014700
     47 H17          5.5850     2.2940    -1.7710 hc         1 IL2       0.061200
     48 H17A         6.3550     2.1460    -0.1960 hc         1 IL2       0.061200
     49 H18          4.4310    -1.0000     0.8490 hc         1 IL2       0.039367
     50 H18A         6.0880    -0.9430     0.2530 hc         1 IL2       0.039367
     51 H18B         5.5540     0.2340     1.4640 hc         1 IL2       0.039367
     52 H22         10.0100    -0.0080    -2.7450 hc         1 IL2       0.046033
     53 H22A         9.2000    -1.5110    -2.2410 hc         1 IL2       0.046033
     54 H22B         8.8380    -0.7940    -3.8300 hc         1 IL2       0.046033
     55 O3          -8.4550    -0.7220    -0.6570 o          1 IL2      -0.742500
     56 O4          -8.3990     0.7910    -2.1890 o          1 IL2      -0.742500
     57 HO2          3.9440     1.7080     1.6610 ho         1 IL2       0.442000
@<TRIPOS>BOND
     1     1     3 1   
     2     1     5 1   
     3     1     8 1   
     4     1    25 1   
     5     2     7 1   
     6     2    26 1   
     7     3     6 1   
     8     3     9 1   
     9     3    27 1   
    10     4    15 1   
    11     4    57 1   
    12     5     7 1   
    13     5    11 1   
    14     5    28 1   
    15     6     7 1   
    16     6    29 1   
    17     6    30 1   
    18     7    31 1   
    19     8    10 1   
    20     8    32 1   
    21     8    33 1   
    22     9    10 1   
    23     9    34 1   
    24     9    35 1   
    25    10    12 2   
    26    11    13 2   
    27    11    36 1   
    28    12    14 1   
    29    12    37 1   
    30    13    15 1   
    31    13    38 1   
    32    14    16 1   
    33    14    39 1   
    34    14    40 1   
    35    15    17 1   
    36    15    41 1   
    37    16    18 1   
    38    16    42 1   
    39    16    43 1   
    40    17    19 1   
    41    17    20 1   
    42    17    44 1   
    43    18    21 1   
    44    18    45 1   
    45    18    46 1   
    46    19    22 1   
    47    19    47 1   
    48    19    48 1   
    49    20    49 1   
    50    20    50 1   
    51    20    51 1   
    52    21    55 1   
    53    21    56 1   
    54    22    23 3   
    55    23    24 1   
    56    24    52 1   
    57    24    53 1   
    58    24    54 1   
@<TRIPOS>SUBSTRUCTURE
     1 IL2         1 TEMP              0 ****  ****    0 ROOT
