@<TRIPOS>MOLECULE
IL3
   31    31     1     0     0
SMALL
No Charge or Current Charge


@<TRIPOS>ATOM
      1 C11          8.2090     0.0400     0.9670 c3         1 IL3      -0.011000
      2 C10          6.8600    -0.2410     0.4650 c1         1 IL3      -0.092100
      3 C9           5.7370    -0.4500     0.0660 c1         1 IL3      -0.162100
      4 C8           4.3870    -0.7320    -0.4350 c3         1 IL3       0.258700
      5 O3           3.4940     0.2760     0.0680 os         1 IL3      -0.336100
      6 C5           2.1470     0.2800    -0.2320 ca         1 IL3       0.151100
      7 C6           1.3590     1.3070     0.3100 ca         1 IL3      -0.175000
      8 C7          -0.0190     1.3660     0.0410 ca         1 IL3      -0.053500
      9 C4           1.5450    -0.6990    -1.0520 ca         1 IL3      -0.175000
     10 C3           0.1660    -0.6400    -1.3210 ca         1 IL3      -0.053500
     11 C2          -0.6230     0.3920    -0.7770 ca         1 IL3      -0.141300
     12 C1          -2.1150     0.4600    -1.0710 c3         1 IL3       0.265100
     13 N2          -2.8670    -0.0510     0.0780 n7         1 IL3      -0.878300
     14 S1          -4.4820    -0.1730    -0.0360 s6         1 IL3       1.247200
     15 O1          -5.1150     0.8160     0.8240 o          1 IL3      -0.550500
     16 O2          -4.8640    -0.3910    -1.4240 o          1 IL3      -0.550500
     17 N1          -4.6470    -1.5890     0.6940 n8         1 IL3      -1.042100
     18 H1           8.8580    -0.8320     0.8230 hc         1 IL3       0.055367
     19 H2           8.6450     0.8920     0.4330 hc         1 IL3       0.055367
     20 H3           8.1760     0.2780     2.0370 hc         1 IL3       0.055367
     21 H4           4.4040    -0.7240    -1.5330 h1         1 IL3       0.049700
     22 H5           4.0810    -1.7300    -0.0960 h1         1 IL3       0.049700
     23 H6           1.8190     2.0610     0.9430 ha         1 IL3       0.125000
     24 H7          -0.6200     2.1650     0.4700 ha         1 IL3       0.118500
     25 H8           2.1250    -1.5080    -1.4870 ha         1 IL3       0.125000
     26 H9          -0.2890    -1.4000    -1.9550 ha         1 IL3       0.118500
     27 H10         -2.3910     1.5030    -1.2820 h1         1 IL3       0.059200
     28 H11         -2.3280    -0.1240    -1.9790 h1         1 IL3       0.059200
     29 H12         -2.6670    -1.0370     0.2200 hn         1 IL3       0.484000
     30 H13         -5.1080    -1.2890     1.5500 hn         1 IL3       0.472000
     31 H14         -5.4280    -1.9770     0.1700 hn         1 IL3       0.472000
@<TRIPOS>BOND
     1     1     2 1   
     2     1    18 1   
     3     1    19 1   
     4     1    20 1   
     5     2     3 3   
     6     3     4 1   
     7     4     5 1   
     8     4    21 1   
     9     4    22 1   
    10     5     6 1   
    11     6     7 ar  
    12     6     9 ar  
    13     7     8 ar  
    14     7    23 1   
    15     8    11 ar  
    16     8    24 1   
    17     9    10 ar  
    18     9    25 1   
    19    10    11 ar  
    20    10    26 1   
    21    11    12 1   
    22    12    13 1   
    23    12    27 1   
    24    12    28 1   
    25    13    14 1   
    26    13    29 1   
    27    14    15 2   
    28    14    16 2   
    29    14    17 1   
    30    17    30 1   
    31    17    31 1   
@<TRIPOS>SUBSTRUCTURE
     1 IL3         1 TEMP              0 ****  ****    0 ROOT
