@<TRIPOS>MOLECULE
IL3
   31    31     1     0     0
SMALL
abcg2


@<TRIPOS>ATOM
      1 C11          8.1840     0.4060     0.7620 c3         1 IL3      -0.011000
      2 C10          6.8350     0.0000     0.4040 c1         1 IL3      -0.092100
      3 C9           5.7180    -0.3300     0.1060 c1         1 IL3      -0.162100
      4 C8           4.3760    -0.7570    -0.2580 c3         1 IL3       0.258700
      5 O3           3.4810     0.3050     0.0270 os         1 IL3      -0.336100
      6 C5           2.1680     0.1090    -0.2220 ca         1 IL3       0.151100
      7 C6           1.3210     1.1800     0.0770 ca         1 IL3      -0.175000
      8 C7          -0.0370     1.0730    -0.1410 ca         1 IL3      -0.053500
      9 C4           1.6300    -1.0630    -0.7390 ca         1 IL3      -0.175000
     10 C3           0.2570    -1.1530    -0.9490 ca         1 IL3      -0.053500
     11 C2          -0.5930    -0.0980    -0.6610 ca         1 IL3      -0.141300
     12 C1          -2.0710    -0.2030    -0.9110 c3         1 IL3       0.265100
     13 N2          -2.8000     0.0000     0.3380 n7         1 IL3      -0.878300
     14 S1          -4.3940     0.3730     0.2880 s6         1 IL3       1.247200
     15 O1          -4.8450     0.3620     1.6690 o          1 IL3      -0.550500
     16 O2          -4.5660     1.5790    -0.4990 o          1 IL3      -0.550500
     17 N1          -5.0720    -0.8370    -0.6130 n8         1 IL3      -1.042100
     18 H1           8.8910    -0.4040     0.5810 hc         1 IL3       0.055367
     19 H2           8.5050     1.2650     0.1730 hc         1 IL3       0.055367
     20 H3           8.2470     0.6750     1.8160 hc         1 IL3       0.055367
     21 H4           4.3420    -1.0190    -1.3220 h1         1 IL3       0.049700
     22 H5           4.1040    -1.6560     0.3060 h1         1 IL3       0.049700
     23 H6           1.7390     2.0940     0.4800 ha         1 IL3       0.125000
     24 H7          -0.6780     1.9130     0.0970 ha         1 IL3       0.118500
     25 H8           2.2480    -1.9170    -0.9830 ha         1 IL3       0.125000
     26 H9          -0.1480    -2.0750    -1.3490 ha         1 IL3       0.118500
     27 H10         -2.3840     0.5690    -1.6150 h1         1 IL3       0.059200
     28 H11         -2.3090    -1.1690    -1.3630 h1         1 IL3       0.059200
     29 H12         -2.5860    -0.6770     1.0620 hn         1 IL3       0.484000
     30 H13         -5.1290    -1.7160    -0.1090 hn         1 IL3       0.472000
     31 H14         -5.9860    -0.5780    -0.9710 hn         1 IL3       0.472000
@<TRIPOS>BOND
     1     1     2 1   
     2     1    18 1   
     3     1    19 1   
     4     1    20 1   
     5     2     3 3   
     6     3     4 1   
     7     4     5 1   
     8     4    21 1   
     9     4    22 1   
    10     5     6 1   
    11     6     7 ar  
    12     6     9 ar  
    13     7     8 ar  
    14     7    23 1   
    15     8    11 ar  
    16     8    24 1   
    17     9    10 ar  
    18     9    25 1   
    19    10    11 ar  
    20    10    26 1   
    21    11    12 1   
    22    12    13 1   
    23    12    27 1   
    24    12    28 1   
    25    13    14 1   
    26    13    29 1   
    27    14    15 2   
    28    14    16 2   
    29    14    17 1   
    30    17    30 1   
    31    17    31 1   
@<TRIPOS>SUBSTRUCTURE
     1 IL3         1 TEMP              0 ****  ****    0 ROOT
