@<TRIPOS>MOLECULE
IL5
   22    23     1     0     0
SMALL
No Charge or Current Charge


@<TRIPOS>ATOM
      1 C2          -0.4320     0.6410    -0.0010 ca         1 IL5       0.089000
      2 C3           0.8860     0.1670     0.0090 ca         1 IL5      -0.277500
      3 S2           2.3890     1.0950     0.0030 sy         1 IL5       1.186300
      4 O3           2.5690     1.7940     1.2800 o          1 IL5      -0.508500
      5 O4           2.5790     1.7630    -1.2890 o          1 IL5      -0.508500
      6 N2           3.3510    -0.2610     0.0230 ns         1 IL5      -0.585300
      7 C7           2.6950    -1.4550     0.0300 c          1 IL5       0.593600
      8 O5           3.2420    -2.5460     0.0370 o          1 IL5      -0.469000
      9 C4           1.2010    -1.1960     0.0240 ca         1 IL5      -0.048600
     10 C5           0.1720    -2.1500     0.0280 ca         1 IL5      -0.073000
     11 C6          -1.1680    -1.7050     0.0200 ca         1 IL5       0.036000
     12 C1          -1.4690    -0.3180     0.0070 ca         1 IL5      -0.260500
     13 S1          -3.1740     0.2250    -0.0030 sy         1 IL5       1.136600
     14 O1          -4.0610    -0.8260     0.4890 o          1 IL5      -0.535000
     15 O2          -3.2830     1.6120     0.4420 o          1 IL5      -0.535000
     16 N1          -3.5250     0.3050    -1.5920 n8         1 IL5      -1.021100
     17 H1          -0.6430     1.7110    -0.0150 ha         1 IL5       0.158000
     18 H2           4.3490    -0.1450     0.0080 hn         1 IL5       0.360500
     19 H3           0.4000    -3.2140     0.0380 ha         1 IL5       0.148000
     20 H4          -1.9690    -2.4430     0.0210 ha         1 IL5       0.145000
     21 H5          -3.9150     1.2430    -1.6450 hn         1 IL5       0.484500
     22 H6          -4.3620    -0.2720    -1.6210 hn         1 IL5       0.484500
@<TRIPOS>BOND
     1     1     2 ar  
     2     1    12 ar  
     3     1    17 1   
     4     2     3 1   
     5     2     9 ar  
     6     3     4 2   
     7     3     5 2   
     8     3     6 1   
     9     6     7 1   
    10     6    18 1   
    11     7     8 2   
    12     7     9 1   
    13     9    10 ar  
    14    10    11 ar  
    15    10    19 1   
    16    11    12 ar  
    17    11    20 1   
    18    12    13 1   
    19    13    14 2   
    20    13    15 2   
    21    13    16 1   
    22    16    21 1   
    23    16    22 1   
@<TRIPOS>SUBSTRUCTURE
     1 IL5         1 TEMP              0 ****  ****    0 ROOT
