@<TRIPOS>MOLECULE
IL5
   22    23     1     0     0
SMALL
abcg2


@<TRIPOS>ATOM
      1 C2          -0.4290     0.6660     0.0670 ca         1 IL5       0.089000
      2 C3           0.8590     0.1760     0.0350 ca         1 IL5      -0.277500
      3 S2           2.3400     1.1340     0.0750 sy         1 IL5       1.186300
      4 O3           2.5040     1.8080     1.3440 o          1 IL5      -0.508500
      5 O4           2.5110     1.9000    -1.1400 o          1 IL5      -0.508500
      6 N2           3.2800    -0.2570     0.0240 ns         1 IL5      -0.585300
      7 C7           2.6100    -1.4520    -0.0410 c          1 IL5       0.593600
      8 O5           3.1240    -2.5390    -0.0970 o          1 IL5      -0.469000
      9 C4           1.1500    -1.1710    -0.0290 ca         1 IL5      -0.048600
     10 C5           0.1310    -2.1040    -0.0730 ca         1 IL5      -0.073000
     11 C6          -1.1780    -1.6470    -0.0490 ca         1 IL5       0.036000
     12 C1          -1.4400    -0.2820     0.0190 ca         1 IL5      -0.260500
     13 S1          -3.1370     0.2580     0.0730 sy         1 IL5       1.136600
     14 O1          -3.8970    -0.6750     0.8860 o          1 IL5      -0.535000
     15 O2          -3.1200     1.6650     0.4360 o          1 IL5      -0.535000
     16 N1          -3.5940    -0.0040    -1.4830 n8         1 IL5      -1.021100
     17 H1          -0.6360     1.7260     0.1260 ha         1 IL5       0.158000
     18 H2           4.2930    -0.1930     0.0110 hn         1 IL5       0.360500
     19 H3           0.3440    -3.1630    -0.1220 ha         1 IL5       0.148000
     20 H4          -1.9900    -2.3610    -0.0830 ha         1 IL5       0.145000
     21 H5          -3.3050     0.7290    -2.1220 hn         1 IL5       0.484500
     22 H6          -4.5880    -0.1900    -1.5640 hn         1 IL5       0.484500
@<TRIPOS>BOND
     1     1     2 ar  
     2     1    12 ar  
     3     1    17 1   
     4     2     3 1   
     5     2     9 ar  
     6     3     4 2   
     7     3     5 2   
     8     3     6 1   
     9     6     7 1   
    10     6    18 1   
    11     7     8 2   
    12     7     9 1   
    13     9    10 ar  
    14    10    11 ar  
    15    10    19 1   
    16    11    12 ar  
    17    11    20 1   
    18    12    13 1   
    19    13    14 2   
    20    13    15 2   
    21    13    16 1   
    22    16    21 1   
    23    16    22 1   
@<TRIPOS>SUBSTRUCTURE
     1 IL5         1 TEMP              0 ****  ****    0 ROOT
