@<TRIPOS>MOLECULE
IL6
   45    48     1     0     0
SMALL
No Charge or Current Charge


@<TRIPOS>ATOM
      1 C10         98.0890   -11.7660    10.3170 c3         1 IL6       0.284000
      2 C11         92.6840    -6.1230    15.0490 ca         1 IL6       0.355300
      3 C13         93.5980    -4.9360    14.8610 cx         1 IL6      -0.195000
      4 C16         95.0990    -5.0770    14.7020 cx         1 IL6      -0.109400
      5 C17         94.2600    -4.6110    13.5360 cx         1 IL6      -0.109400
      6 C21         90.7450    -7.1700    16.0790 ca         1 IL6      -0.155000
      7 C22         88.8380    -9.6540    15.9240 ca         1 IL6       0.205000
      8 C23         91.5840    -6.0530    15.9230 ca         1 IL6      -0.090000
      9 C24         86.2880   -10.0950    16.7070 ca         1 IL6       0.089900
     10 C28         88.3960   -10.9280    16.3470 ca         1 IL6       0.065900
     11 C1          92.1720    -8.3510    14.5050 ca         1 IL6       0.220500
     12 N2          92.9790    -7.2470    14.3580 nb         1 IL6      -0.664000
     13 C3          92.5690    -9.6140    13.7320 c          1 IL6       0.533600
     14 N4          95.3410    -9.9530    11.3600 nc         1 IL6      -0.565800
     15 C5          94.2990   -10.3180    12.0710 cd         1 IL6       0.394900
     16 N6          95.6730   -11.1080    10.6790 na         1 IL6       0.115800
     17 C8          93.9480   -11.6690    11.8610 cd         1 IL6      -0.212000
     18 C9          91.0130    -8.3440    15.3490 ca         1 IL6       0.338000
     19 C12         96.8140   -11.1130     9.7480 c3         1 IL6       0.022600
     20 C14         94.8340   -12.1830    10.9580 cc         1 IL6      -0.144000
     21 N15         90.1690    -9.4660    15.4960 nu         1 IL6      -0.974000
     22 O18         91.9920   -10.6920    13.8440 o          1 IL6      -0.623100
     23 N19         87.1250   -11.1520    16.7440 nb         1 IL6      -0.150000
     24 N20         86.5910    -8.8420    16.3040 nb         1 IL6      -0.150000
     25 F25         97.8820   -13.0700    10.6130 f          1 IL6      -0.107333
     26 F26         99.0950   -11.7020     9.4160 f          1 IL6      -0.107333
     27 F27         98.5010   -11.1410    11.4440 f          1 IL6      -0.107333
     28 C29         87.8640    -8.6270    15.9100 ca         1 IL6       0.065900
     29 H1          93.2640    -4.0790    15.4410 hc         1 IL6       0.084700
     30 H2          95.7320    -4.3440    15.1960 hc         1 IL6       0.077700
     31 H3          95.5210    -6.0780    14.6530 hc         1 IL6       0.077700
     32 H4          94.1220    -5.3010    12.7060 hc         1 IL6       0.077700
     33 H5          94.3300    -3.5650    13.2470 hc         1 IL6       0.077700
     34 H6          89.9150    -7.1220    16.7750 ha         1 IL6       0.132000
     35 H7          91.3870    -5.1400    16.4790 ha         1 IL6       0.129000
     36 H8          85.2620   -10.2710    17.0260 h5         1 IL6       0.054100
     37 H9          89.0720   -11.7820    16.3740 h4         1 IL6       0.031600
     38 H10         94.0240    -8.4970    12.9460 hn         1 IL6       0.366500
     39 H11         93.1320   -12.2130    12.3190 ha         1 IL6       0.172000
     40 H12         96.5150   -11.6480     8.8390 h1         1 IL6       0.100200
     41 H13         97.0410   -10.0790     9.4630 h1         1 IL6       0.100200
     42 H14         94.9390   -13.1650    10.5130 h4         1 IL6       0.160000
     43 H15         90.6020   -10.3140    15.0950 hn         1 IL6       0.545000
     44 H16         88.0920    -7.6230    15.5570 h4         1 IL6       0.031600
     45 N7          93.6590    -9.4400    12.9030 ns         1 IL6      -0.445400
@<TRIPOS>BOND
     1     1    19 1   
     2     1    25 1   
     3     1    26 1   
     4     1    27 1   
     5     2     3 1   
     6     2     8 ar  
     7     2    12 ar  
     8     3     4 1   
     9     3     5 1   
    10     3    29 1   
    11     4     5 1   
    12     4    30 1   
    13     4    31 1   
    14     5    32 1   
    15     5    33 1   
    16     6     8 ar  
    17     6    18 ar  
    18     6    34 1   
    19     7    10 ar  
    20     7    21 1   
    21     7    28 ar  
    22     8    35 1   
    23     9    23 ar  
    24     9    24 ar  
    25     9    36 1   
    26    10    23 ar  
    27    10    37 1   
    28    11    12 ar  
    29    11    13 1   
    30    11    18 ar  
    31    13    22 2   
    32    13    45 1   
    33    14    15 2   
    34    14    16 1   
    35    15    17 1   
    36    15    45 1   
    37    16    19 1   
    38    16    20 1   
    39    17    20 2   
    40    17    39 1   
    41    18    21 1   
    42    19    40 1   
    43    19    41 1   
    44    20    42 1   
    45    21    43 1   
    46    24    28 ar  
    47    28    44 1   
    48    38    45 1   
@<TRIPOS>SUBSTRUCTURE
     1 IL6         1 TEMP              0 ****  ****    0 ROOT
