@<TRIPOS>MOLECULE
IL6
   45    48     1     0     0
SMALL
abcg2


@<TRIPOS>ATOM
      1 C10         98.0560   -11.4790    10.6930 c3         1 IL6       0.284000
      2 C11         92.7020    -6.2850    15.0160 ca         1 IL6       0.355300
      3 C13         93.6110    -5.1340    14.8270 cx         1 IL6      -0.195000
      4 C16         95.0720    -5.3620    14.5450 cx         1 IL6      -0.109400
      5 C17         94.1860    -4.8460    13.4660 cx         1 IL6      -0.109400
      6 C21         90.7920    -7.3030    16.0490 ca         1 IL6      -0.155000
      7 C22         88.8990    -9.6160    15.9090 ca         1 IL6       0.205000
      8 C23         91.6310    -6.2240    15.9150 ca         1 IL6      -0.090000
      9 C24         86.4310    -9.8730    16.9040 ca         1 IL6       0.089900
     10 C28         88.4530   -10.7940    16.5120 ca         1 IL6       0.065900
     11 C1          92.1160    -8.4450    14.4340 ca         1 IL6       0.220500
     12 N2          92.9150    -7.3860    14.3280 nb         1 IL6      -0.664000
     13 C3          92.5110    -9.6290    13.6130 c          1 IL6       0.533600
     14 N4          95.3260    -9.9680    11.4090 nc         1 IL6      -0.565800
     15 C5          94.1980   -10.3250    11.9910 cd         1 IL6       0.394900
     16 N6          95.6570   -11.0050    10.6330 na         1 IL6       0.115800
     17 C8          93.7910   -11.6170    11.5970 cd         1 IL6      -0.212000
     18 C9          90.9910    -8.4600    15.2780 ca         1 IL6       0.338000
     19 C12         96.8770   -10.9780     9.8810 c3         1 IL6       0.022600
     20 C14         94.7710   -12.0130    10.7210 cc         1 IL6      -0.144000
     21 N15         90.1740    -9.5580    15.3770 nu         1 IL6      -0.974000
     22 O18         91.9040   -10.6940    13.6500 o          1 IL6      -0.623100
     23 N19         87.2310   -10.9250    16.9980 nb         1 IL6      -0.150000
     24 N20         86.7400    -8.7150    16.3430 nb         1 IL6      -0.150000
     25 F25         97.8770   -12.7420    11.1010 f          1 IL6      -0.107333
     26 F26         99.1720   -11.4490     9.9570 f          1 IL6      -0.107333
     27 F27         98.2750   -10.7440    11.7860 f          1 IL6      -0.107333
     28 C29         87.9580    -8.5890    15.8390 ca         1 IL6       0.065900
     29 H1          93.3680    -4.2720    15.4380 hc         1 IL6       0.084700
     30 H2          95.7790    -4.6840    15.0050 hc         1 IL6       0.077700
     31 H3          95.4050    -6.3900    14.4800 hc         1 IL6       0.077700
     32 H4          93.9160    -5.5240    12.6650 hc         1 IL6       0.077700
     33 H5          94.2750    -3.8090    13.1710 hc         1 IL6       0.077700
     34 H6          89.9870    -7.2530    16.7700 ha         1 IL6       0.132000
     35 H7          91.4680    -5.3380    16.5140 ha         1 IL6       0.129000
     36 H8          85.4340    -9.9720    17.3180 h5         1 IL6       0.054100
     37 H9          89.1160   -11.6510    16.5870 h4         1 IL6       0.031600
     38 H10         94.0190    -8.4980    12.9200 hn         1 IL6       0.366500
     39 H11         92.9190   -12.1700    11.8900 ha         1 IL6       0.172000
     40 H12         96.7700   -11.6050     8.9950 h1         1 IL6       0.100200
     41 H13         97.0720    -9.9580     9.5500 h1         1 IL6       0.100200
     42 H14         94.8850   -12.9250    10.1570 h4         1 IL6       0.160000
     43 H15         90.5360   -10.3970    14.9390 hn         1 IL6       0.545000
     44 H16         88.1890    -7.6470    15.3540 h4         1 IL6       0.031600
     45 N7          93.5960    -9.4160    12.8440 ns         1 IL6      -0.445400
@<TRIPOS>BOND
     1     1    19 1   
     2     1    25 1   
     3     1    26 1   
     4     1    27 1   
     5     2     3 1   
     6     2     8 ar  
     7     2    12 ar  
     8     3     4 1   
     9     3     5 1   
    10     3    29 1   
    11     4     5 1   
    12     4    30 1   
    13     4    31 1   
    14     5    32 1   
    15     5    33 1   
    16     6     8 ar  
    17     6    18 ar  
    18     6    34 1   
    19     7    10 ar  
    20     7    21 1   
    21     7    28 ar  
    22     8    35 1   
    23     9    23 ar  
    24     9    24 ar  
    25     9    36 1   
    26    10    23 ar  
    27    10    37 1   
    28    11    12 ar  
    29    11    13 1   
    30    11    18 ar  
    31    13    22 2   
    32    13    45 1   
    33    14    15 2   
    34    14    16 1   
    35    15    17 1   
    36    15    45 1   
    37    16    19 1   
    38    16    20 1   
    39    17    20 2   
    40    17    39 1   
    41    18    21 1   
    42    19    40 1   
    43    19    41 1   
    44    20    42 1   
    45    21    43 1   
    46    24    28 ar  
    47    28    44 1   
    48    38    45 1   
@<TRIPOS>SUBSTRUCTURE
     1 IL6         1 TEMP              0 ****  ****    0 ROOT
