@<TRIPOS>MOLECULE
IL7
   86    89     1     0     0
SMALL
No Charge or Current Charge


@<TRIPOS>ATOM
      1 C10        -21.7740   -22.0800   -21.6060 cc         1 IL7       0.068900
      2 C13        -20.2170   -21.6070   -23.4190 cd         1 IL7       0.484900
      3 C15        -22.3660   -22.5040   -17.1480 ca         1 IL7      -0.045000
      4 C17        -23.5880   -22.8030   -16.5210 ca         1 IL7      -0.184000
      5 C20        -18.7450   -21.1880   -25.3160 c3         1 IL7       0.088100
      6 C22        -14.9360   -22.1260   -16.8050 c3         1 IL7       0.102000
      7 C24        -15.4890   -25.8570   -16.9220 c3         1 IL7       0.120600
      8 C26        -15.9340   -24.6710   -19.8110 c3         1 IL7       0.159600
      9 C28        -18.1190   -25.1040   -21.1270 c3         1 IL7      -0.078400
     10 C01        -20.9490   -22.1200   -19.2620 cf         1 IL7       0.052600
     11 C02        -19.2330   -22.8810   -17.5570 ca         1 IL7      -0.072300
     12 C03        -19.8770   -21.8410   -18.2750 ca         1 IL7      -0.053800
     13 C04        -18.2070   -22.5590   -16.6500 ca         1 IL7      -0.080000
     14 C05        -19.4640   -20.5080   -18.0770 ca         1 IL7      -0.109000
     15 C06        -17.7940   -21.2270   -16.4560 ca         1 IL7      -0.144600
     16 C07        -18.4450   -20.1990   -17.1610 ca         1 IL7      -0.074000
     17 C08        -20.7330   -21.9390   -20.6180 cc         1 IL7      -0.043000
     18 C09        -19.4120   -21.6360   -21.1290 cc         1 IL7      -0.131000
     19 C11        -19.1500   -21.4670   -22.4720 cd         1 IL7      -0.330600
     20 C12        -21.5280   -21.9140   -22.9530 cd         1 IL7      -0.214600
     21 C14        -22.2570   -22.4320   -18.5660 ca         1 IL7      -0.077800
     22 C16        -23.4500   -22.6410   -19.3040 ca         1 IL7       0.106500
     23 C18        -24.6680   -22.9390   -18.6700 ca         1 IL7      -0.160000
     24 C19        -24.7370   -23.0260   -17.2790 ca         1 IL7       0.323000
     25 C23        -14.5050   -23.6080   -16.7030 c3         1 IL7       0.141600
     26 C25        -14.8400   -26.2560   -18.2840 c3         1 IL7       0.130600
     27 C27        -16.6370   -24.6730   -21.1840 c3         1 IL7      -0.073400
     28 C29        -18.7900   -25.1450   -22.5160 c3         1 IL7      -0.070400
     29 C30        -20.2960   -25.4890   -22.4470 c3         1 IL7      -0.077400
     30 C31        -21.0120   -25.4400   -23.8130 c3         1 IL7       0.153600
     31 C34        -19.6130   -24.3500   -17.7280 c3         1 IL7      -0.052800
     32 N01        -15.4990   -21.5580   -15.5660 ns         1 IL7      -0.491900
     33 N02        -25.9230   -23.3150   -16.6610 nv         1 IL7      -1.103000
     34 N03        -20.0470   -21.4810   -24.6980 n2         1 IL7      -0.576900
     35 O01        -16.8930   -20.1130   -14.5500 o          1 IL7      -0.599100
     36 O02        -15.6830   -24.4290   -16.8090 os         1 IL7      -0.461000
     37 O03        -15.7440   -26.0410   -19.3970 os         1 IL7      -0.465000
     38 SI01       -23.4450   -22.5010   -21.1110 s6         1 IL7      -0.296400
     39 H07        -21.5180   -22.3230   -16.4960 ha         1 IL7       0.123000
     40 H08        -23.6330   -22.8560   -15.4370 ha         1 IL7       0.115000
     41 H11        -18.8410   -21.1310   -26.4080 h1         1 IL7       0.042700
     42 H12        -18.3470   -20.2260   -24.9650 h1         1 IL7       0.042700
     43 H10        -18.0110   -21.9720   -25.0850 h1         1 IL7       0.042700
     44 H14        -14.0470   -21.5330   -17.0580 h1         1 IL7       0.056200
     45 H15        -15.6410   -22.0090   -17.6380 h1         1 IL7       0.056200
     46 H18        -16.4530   -26.3740   -16.8330 h1         1 IL7       0.056700
     47 H19        -14.8500   -26.2180   -16.1050 h1         1 IL7       0.056700
     48 H23        -14.9650   -24.1640   -19.9120 h1         1 IL7       0.028700
     49 H22        -16.5470   -24.1110   -19.0940 h1         1 IL7       0.028700
     50 H27        -18.1980   -26.0930   -20.6580 hc         1 IL7       0.045700
     51 H26        -18.6630   -24.4010   -20.4880 hc         1 IL7       0.045700
     52 H01        -17.7440   -23.3510   -16.0680 ha         1 IL7       0.141000
     53 H02        -19.9490   -19.7060   -18.6280 ha         1 IL7       0.124000
     54 H03        -18.1500   -19.1630   -17.0100 ha         1 IL7       0.127000
     55 H04        -18.5850   -21.5470   -20.4300 ha         1 IL7       0.183000
     56 H05        -18.1390   -21.2420   -22.7910 ha         1 IL7       0.179000
     57 H06        -20.8610   -24.4640   -24.2930 h1         1 IL7       0.066700
     58 H09        -25.5600   -23.0980   -19.2670 ha         1 IL7       0.103000
     59 H16        -13.9770   -23.7870   -15.7580 h1         1 IL7       0.033200
     60 H17        -13.8120   -23.8110   -17.5280 h1         1 IL7       0.033200
     61 H21        -14.5970   -27.3250   -18.2260 h1         1 IL7       0.046200
     62 H20        -13.8900   -25.7300   -18.4370 h1         1 IL7       0.046200
     63 H24        -16.5810   -23.6600   -21.6010 hc         1 IL7       0.044700
     64 H25        -16.0850   -25.3270   -21.8700 hc         1 IL7       0.044700
     65 H28        -18.6650   -24.1730   -23.0080 hc         1 IL7       0.048200
     66 H29        -18.2720   -25.8840   -23.1400 hc         1 IL7       0.048200
     67 H31        -20.4260   -26.4860   -22.0080 hc         1 IL7       0.046200
     68 H30        -20.7890   -24.7810   -21.7710 hc         1 IL7       0.046200
     69 H33        -22.0890   -25.6060   -23.6800 h1         1 IL7       0.066700
     70 H32        -22.3290   -22.0250   -23.6720 ha         1 IL7       0.185000
     71 H38        -24.9860   -24.2900   -21.5550 h1         1 IL7       0.059200
     72 H36        -23.9120   -23.9640   -22.9610 h1         1 IL7       0.059200
     73 H37        -23.2810   -24.8600   -21.5320 h1         1 IL7       0.059200
     74 H40        -24.3040   -20.2600   -21.2030 h1         1 IL7       0.059200
     75 H39        -24.5730   -21.1460   -22.7460 h1         1 IL7       0.059200
     76 H41        -25.6140   -21.4870   -21.3200 h1         1 IL7       0.059200
     77 H42        -20.1890   -24.5380   -18.6410 hc         1 IL7       0.050033
     78 H44        -18.7180   -24.9820   -17.7790 hc         1 IL7       0.050033
     79 H43        -20.2150   -24.6980   -16.8810 hc         1 IL7       0.050033
     80 H13        -14.8520   -21.3710   -14.8090 hn         1 IL7       0.306500
     81 H34        -26.0010   -23.2110   -15.6500 hn         1 IL7       0.468000
     82 H35        -26.7880   -23.3120   -17.1980 hn         1 IL7       0.468000
     83 Cl1        -20.4040   -26.7250   -24.9510 cl         1 IL7      -0.327000
     84 C32        -23.9590   -24.0670   -21.8700 c3         1 IL7      -0.125600
     85 C21        -16.7070   -20.9010   -15.4650 c          1 IL7       0.608700
     86 C33        -24.6050   -21.2150   -21.6520 c3         1 IL7      -0.125600
@<TRIPOS>BOND
     1     1    17 1   
     2     1    20 2   
     3     1    38 1   
     4     2    19 1   
     5     2    20 1   
     6     2    34 2   
     7     3     4 ar  
     8     3    21 ar  
     9     3    39 1   
    10     4    24 ar  
    11     4    40 1   
    12     5    34 1   
    13     5    41 1   
    14     5    42 1   
    15     5    43 1   
    16     6    25 1   
    17     6    32 1   
    18     6    44 1   
    19     6    45 1   
    20     7    26 1   
    21     7    36 1   
    22     7    46 1   
    23     7    47 1   
    24     8    27 1   
    25     8    37 1   
    26     8    48 1   
    27     8    49 1   
    28     9    27 1   
    29     9    28 1   
    30     9    50 1   
    31     9    51 1   
    32    10    12 1   
    33    10    17 2   
    34    10    21 1   
    35    11    12 ar  
    36    11    13 ar  
    37    11    31 1   
    38    12    14 ar  
    39    13    15 ar  
    40    13    52 1   
    41    14    16 ar  
    42    14    53 1   
    43    15    16 ar  
    44    15    85 1   
    45    16    54 1   
    46    17    18 1   
    47    18    19 2   
    48    18    55 1   
    49    19    56 1   
    50    20    70 1   
    51    21    22 ar  
    52    22    23 ar  
    53    22    38 1   
    54    23    24 ar  
    55    23    58 1   
    56    24    33 1   
    57    25    36 1   
    58    25    59 1   
    59    25    60 1   
    60    26    37 1   
    61    26    61 1   
    62    26    62 1   
    63    27    63 1   
    64    27    64 1   
    65    28    29 1   
    66    28    65 1   
    67    28    66 1   
    68    29    30 1   
    69    29    67 1   
    70    29    68 1   
    71    30    57 1   
    72    30    69 1   
    73    30    83 1   
    74    31    77 1   
    75    31    78 1   
    76    31    79 1   
    77    32    80 1   
    78    32    85 1   
    79    33    81 1   
    80    33    82 1   
    81    35    85 2   
    82    38    84 1   
    83    38    86 1   
    84    71    84 1   
    85    72    84 1   
    86    73    84 1   
    87    74    86 1   
    88    75    86 1   
    89    76    86 1   
@<TRIPOS>SUBSTRUCTURE
     1 IL7         1 TEMP              0 ****  ****    0 ROOT
