@<TRIPOS>MOLECULE
IL7
   86    89     1     0     0
SMALL
abcg2


@<TRIPOS>ATOM
      1 C10        -21.9640   -22.0740   -21.5760 cc         1 IL7       0.068900
      2 C13        -20.2550   -22.0380   -23.3830 cd         1 IL7       0.484900
      3 C15        -22.4570   -22.3850   -17.1110 ca         1 IL7      -0.045000
      4 C17        -23.6190   -22.6490   -16.4190 ca         1 IL7      -0.184000
      5 C20        -18.6790   -22.0780   -25.1500 c3         1 IL7       0.088100
      6 C22        -15.0150   -22.1800   -16.6130 c3         1 IL7       0.102000
      7 C24        -15.1770   -25.8290   -17.1260 c3         1 IL7       0.120600
      8 C26        -15.8420   -24.4580   -19.8970 c3         1 IL7       0.159600
      9 C28        -17.6880   -25.3030   -21.4000 c3         1 IL7      -0.078400
     10 C01        -21.1530   -22.0240   -19.1920 cf         1 IL7       0.052600
     11 C02        -19.2940   -22.9060   -17.7240 ca         1 IL7      -0.072300
     12 C03        -19.9710   -21.8190   -18.2950 ca         1 IL7      -0.053800
     13 C04        -18.2550   -22.6560   -16.8330 ca         1 IL7      -0.080000
     14 C05        -19.5940   -20.5170   -17.9650 ca         1 IL7      -0.109000
     15 C06        -17.9070   -21.3560   -16.4710 ca         1 IL7      -0.144600
     16 C07        -18.5800   -20.2810   -17.0470 ca         1 IL7      -0.074000
     17 C08        -20.9290   -21.9480   -20.5580 cc         1 IL7      -0.043000
     18 C09        -19.5900   -21.7160   -21.0450 cc         1 IL7      -0.131000
     19 C11        -19.2590   -21.7570   -22.3550 cd         1 IL7      -0.330600
     20 C12        -21.6170   -22.0670   -22.8860 cd         1 IL7      -0.214600
     21 C14        -22.4190   -22.2800   -18.5190 ca         1 IL7      -0.077800
     22 C16        -23.6550   -22.4210   -19.2100 ca         1 IL7       0.106500
     23 C18        -24.8190   -22.6740   -18.5040 ca         1 IL7      -0.160000
     24 C19        -24.8360   -22.8040   -17.1040 ca         1 IL7       0.323000
     25 C23        -14.4980   -23.6050   -16.5760 c3         1 IL7       0.141600
     26 C25        -14.5720   -25.9800   -18.5170 c3         1 IL7       0.130600
     27 C27        -16.4500   -24.4190   -21.2860 c3         1 IL7      -0.073400
     28 C29        -18.4370   -25.1510   -22.7260 c3         1 IL7      -0.070400
     29 C30        -19.8380   -25.7590   -22.5990 c3         1 IL7      -0.077400
     30 C31        -20.7800   -25.8180   -23.7930 c3         1 IL7       0.153600
     31 C34        -19.6740   -24.3180   -18.0650 c3         1 IL7      -0.052800
     32 N01        -15.7320   -21.7610   -15.4130 ns         1 IL7      -0.491900
     33 N02        -25.9920   -23.1060   -16.4370 nv         1 IL7      -1.103000
     34 N03        -20.0410   -22.1730   -24.6550 n2         1 IL7      -0.576900
     35 O01        -17.2390   -20.4150   -14.4050 o          1 IL7      -0.599100
     36 O02        -15.5770   -24.5070   -16.7840 os         1 IL7      -0.461000
     37 O03        -15.4840   -25.8080   -19.5910 os         1 IL7      -0.465000
     38 SI01       -23.7540   -22.1840   -21.0640 s6         1 IL7      -0.296400
     39 H07        -21.5470   -22.2640   -16.5410 ha         1 IL7       0.123000
     40 H08        -23.6000   -22.7280   -15.3390 ha         1 IL7       0.115000
     41 H11        -18.6710   -22.2870   -26.2190 h1         1 IL7       0.042700
     42 H12        -18.2620   -21.0740   -25.0020 h1         1 IL7       0.042700
     43 H10        -17.9980   -22.7850   -24.6640 h1         1 IL7       0.042700
     44 H14        -14.1590   -21.5130   -16.7540 h1         1 IL7       0.056200
     45 H15        -15.6730   -22.0600   -17.4710 h1         1 IL7       0.056200
     46 H18        -16.0810   -26.4370   -17.0610 h1         1 IL7       0.056700
     47 H19        -14.4550   -26.2080   -16.3890 h1         1 IL7       0.056700
     48 H23        -14.9520   -23.8210   -19.8430 h1         1 IL7       0.028700
     49 H22        -16.5620   -24.0900   -19.1580 h1         1 IL7       0.028700
     50 H27        -17.4150   -26.3490   -21.2450 hc         1 IL7       0.045700
     51 H26        -18.3600   -25.0470   -20.5770 hc         1 IL7       0.045700
     52 H01        -17.7190   -23.4910   -16.4030 ha         1 IL7       0.141000
     53 H02        -20.1210   -19.6860   -18.4150 ha         1 IL7       0.124000
     54 H03        -18.3190   -19.2690   -16.7680 ha         1 IL7       0.127000
     55 H04        -18.8160   -21.4970   -20.3210 ha         1 IL7       0.183000
     56 H05        -18.2250   -21.5670   -22.6230 ha         1 IL7       0.179000
     57 H06        -21.2700   -24.9010   -24.0950 h1         1 IL7       0.066700
     58 H09        -25.7610   -22.7750   -19.0350 ha         1 IL7       0.103000
     59 H16        -14.0020   -23.8250   -15.6230 h1         1 IL7       0.033200
     60 H17        -13.7540   -23.6980   -17.3710 h1         1 IL7       0.033200
     61 H21        -14.2000   -27.0040   -18.5980 h1         1 IL7       0.046200
     62 H20        -13.7160   -25.3080   -18.6470 h1         1 IL7       0.046200
     63 H24        -16.7220   -23.3840   -21.5110 hc         1 IL7       0.044700
     64 H25        -15.6970   -24.7200   -22.0220 hc         1 IL7       0.044700
     65 H28        -18.4510   -24.0870   -22.9740 hc         1 IL7       0.048200
     66 H29        -17.8850   -25.6440   -23.5290 hc         1 IL7       0.048200
     67 H31        -19.7100   -26.7850   -22.2410 hc         1 IL7       0.046200
     68 H30        -20.3860   -25.2350   -21.8070 hc         1 IL7       0.046200
     69 H33        -21.5470   -26.5730   -23.6450 h1         1 IL7       0.066700
     70 H32        -22.3540   -22.1110   -23.6740 ha         1 IL7       0.185000
     71 H38        -25.6390   -23.7220   -21.5460 h1         1 IL7       0.059200
     72 H36        -24.6200   -23.4970   -22.9740 h1         1 IL7       0.059200
     73 H37        -24.0840   -24.5640   -21.6650 h1         1 IL7       0.059200
     74 H40        -24.1620   -19.7360   -20.9830 h1         1 IL7       0.059200
     75 H39        -24.6580   -20.4160   -22.5430 h1         1 IL7       0.059200
     76 H41        -25.6850   -20.6320   -21.1160 h1         1 IL7       0.059200
     77 H42        -19.6420   -24.4740   -19.1430 hc         1 IL7       0.050033
     78 H44        -18.9910   -25.0270   -17.5980 hc         1 IL7       0.050033
     79 H43        -20.6890   -24.5490   -17.7330 hc         1 IL7       0.050033
     80 H13        -15.1540   -21.5850   -14.6010 hn         1 IL7       0.306500
     81 H34        -26.0220   -22.9520   -15.4410 hn         1 IL7       0.468000
     82 H35        -26.8670   -22.9620   -16.9150 hn         1 IL7       0.468000
     83 CL1        -19.8970   -26.3700   -25.3110 cl         1 IL7      -0.327000
     84 C32        -24.6050   -23.6330   -21.8890 c3         1 IL7      -0.125600
     85 C21        -16.9240   -21.1210   -15.3690 c          1 IL7       0.608700
     86 C33        -24.6490   -20.5870   -21.4630 c3         1 IL7      -0.125600
@<TRIPOS>BOND
     1     1    17 1   
     2     1    20 2   
     3     1    38 1   
     4     2    19 1   
     5     2    20 1   
     6     2    34 2   
     7     3     4 ar  
     8     3    21 ar  
     9     3    39 1   
    10     4    24 ar  
    11     4    40 1   
    12     5    34 1   
    13     5    41 1   
    14     5    42 1   
    15     5    43 1   
    16     6    25 1   
    17     6    32 1   
    18     6    44 1   
    19     6    45 1   
    20     7    26 1   
    21     7    36 1   
    22     7    46 1   
    23     7    47 1   
    24     8    27 1   
    25     8    37 1   
    26     8    48 1   
    27     8    49 1   
    28     9    27 1   
    29     9    28 1   
    30     9    50 1   
    31     9    51 1   
    32    10    12 1   
    33    10    17 2   
    34    10    21 1   
    35    11    12 ar  
    36    11    13 ar  
    37    11    31 1   
    38    12    14 ar  
    39    13    15 ar  
    40    13    52 1   
    41    14    16 ar  
    42    14    53 1   
    43    15    16 ar  
    44    15    85 1   
    45    16    54 1   
    46    17    18 1   
    47    18    19 2   
    48    18    55 1   
    49    19    56 1   
    50    20    70 1   
    51    21    22 ar  
    52    22    23 ar  
    53    22    38 1   
    54    23    24 ar  
    55    23    58 1   
    56    24    33 1   
    57    25    36 1   
    58    25    59 1   
    59    25    60 1   
    60    26    37 1   
    61    26    61 1   
    62    26    62 1   
    63    27    63 1   
    64    27    64 1   
    65    28    29 1   
    66    28    65 1   
    67    28    66 1   
    68    29    30 1   
    69    29    67 1   
    70    29    68 1   
    71    30    57 1   
    72    30    69 1   
    73    30    83 1   
    74    31    77 1   
    75    31    78 1   
    76    31    79 1   
    77    32    80 1   
    78    32    85 1   
    79    33    81 1   
    80    33    82 1   
    81    35    85 2   
    82    38    84 1   
    83    38    86 1   
    84    71    84 1   
    85    72    84 1   
    86    73    84 1   
    87    74    86 1   
    88    75    86 1   
    89    76    86 1   
@<TRIPOS>SUBSTRUCTURE
     1 IL7         1 TEMP              0 ****  ****    0 ROOT
