@<TRIPOS>MOLECULE
IL8
   56    59     1     0     0
SMALL
No Charge or Current Charge


@<TRIPOS>ATOM
      1 C10        -40.6230    18.1480   -15.1240 c3         1 IL8       0.145900
      2 C20        -35.9290    22.7470    -9.8370 c3         1 IL8      -0.059100
      3 C21        -36.1210    24.0300    -9.0400 ca         1 IL8      -0.067300
      4 C22        -37.4000    24.4100    -8.5990 ca         1 IL8      -0.115000
      5 C24        -36.4790    26.4390    -7.5650 ca         1 IL8      -0.138600
      6 C11        -35.4340    18.2240   -14.2980 cc         1 IL8       0.632500
      7 C14        -34.7620    19.8540   -13.1740 cd         1 IL8       0.437500
      8 C16        -34.6180    21.1190   -12.3590 c          1 IL8       0.529600
      9 C19        -35.9850    23.0010   -11.3560 c3         1 IL8       0.105000
     10 C23        -37.5800    25.5980    -7.8690 ca         1 IL8      -0.070000
     11 C01        -38.6600    13.5680   -17.7050 c3         1 IL8       0.145900
     12 C03        -38.1720    15.5910   -16.3620 ca         1 IL8       0.140100
     13 C04        -36.7890    15.3110   -16.3300 ca         1 IL8      -0.184000
     14 C05        -35.9050    16.1700   -15.6580 ca         1 IL8      -0.057000
     15 C06        -36.3760    17.3300   -15.0010 ca         1 IL8      -0.157500
     16 C07        -37.7650    17.6060   -15.0360 ca         1 IL8      -0.125000
     17 C08        -38.6630    16.7460   -15.7110 ca         1 IL8       0.098100
     18 O09        -40.0260    17.0010   -15.7550 os         1 IL8      -0.328100
     19 N12        -34.1310    18.0050   -14.2390 nd         1 IL8      -0.364300
     20 O13        -33.6660    19.1020   -13.4810 os         1 IL8      -0.058700
     21 N15        -35.8870    19.3440   -13.6640 nc         1 IL8      -0.727000
     22 O17        -33.5560    21.5570   -11.9240 o          1 IL8      -0.552100
     23 N18        -35.8230    21.7690   -12.1340 ns         1 IL8      -0.485900
     24 C25        -35.1960    26.0400    -8.0130 ca         1 IL8      -0.070000
     25 C26        -35.0220    24.8520    -8.7430 ca         1 IL8      -0.115000
     26 C27        -36.6400    27.7350    -6.7740 c          1 IL8       0.613700
     27 O28        -35.6100    28.2840    -6.3900 o          1 IL8      -0.602100
     28 N29        -38.0200    28.0760    -6.5710 nj         1 IL8      -0.417800
     29 C30        -38.2660    28.8190    -7.8460 cy         1 IL8       0.097000
     30 C31        -38.9430    29.8920    -6.9290 cy         1 IL8      -0.116400
     31 C32        -37.9910    29.3670    -5.8040 cy         1 IL8       0.097000
     32 H1         -41.7080    18.1480   -15.2870 h1         1 IL8       0.042700
     33 H2         -40.4420    18.1370   -14.0420 h1         1 IL8       0.042700
     34 H3         -40.2180    19.0780   -15.5410 h1         1 IL8       0.042700
     35 H4         -36.7000    22.0140    -9.5680 hc         1 IL8       0.059700
     36 H5         -34.9670    22.2880    -9.5800 hc         1 IL8       0.059700
     37 H6         -38.2610    23.7840    -8.8210 ha         1 IL8       0.118000
     38 H7         -35.1970    23.7120   -11.6390 h1         1 IL8       0.065700
     39 H8         -36.9520    23.4530   -11.6130 h1         1 IL8       0.065700
     40 H9         -38.5860    25.8470    -7.5390 ha         1 IL8       0.126500
     41 H10        -39.5300    13.0690   -18.1490 h1         1 IL8       0.045033
     42 H11        -37.9560    13.8050   -18.5120 h1         1 IL8       0.045033
     43 H12        -38.1810    12.8640   -17.0130 h1         1 IL8       0.045033
     44 H13        -36.3800    14.4330   -16.8200 ha         1 IL8       0.125000
     45 H14        -34.8440    15.9240   -15.6530 ha         1 IL8       0.134000
     46 H15        -38.1390    18.4940   -14.5350 ha         1 IL8       0.137000
     47 H16        -36.6450    21.3290   -12.5390 hn         1 IL8       0.341500
     48 H17        -34.3230    26.6540    -7.8020 ha         1 IL8       0.126500
     49 H18        -34.0260    24.5720    -9.0790 ha         1 IL8       0.118000
     50 H19        -38.9520    28.3090    -8.5310 h1         1 IL8       0.058700
     51 H20        -37.3790    29.1900    -8.3790 h1         1 IL8       0.058700
     52 H21        -38.8030    30.9360    -7.2280 hc         1 IL8       0.062200
     53 H22        -40.0070    29.7140    -6.7390 hc         1 IL8       0.062200
     54 H23        -37.0520    29.9300    -5.7530 h1         1 IL8       0.058700
     55 H24        -38.4570    29.2990    -4.8140 h1         1 IL8       0.058700
     56 O02        -39.0700    14.7630   -17.0160 os         1 IL8      -0.325100
@<TRIPOS>BOND
     1     1    18 1   
     2     1    32 1   
     3     1    33 1   
     4     1    34 1   
     5     2     3 1   
     6     2     9 1   
     7     2    35 1   
     8     2    36 1   
     9     3     4 ar  
    10     3    25 ar  
    11     4    10 ar  
    12     4    37 1   
    13     5    10 ar  
    14     5    24 ar  
    15     5    26 1   
    16     6    15 1   
    17     6    19 2   
    18     6    21 1   
    19     7     8 1   
    20     7    20 1   
    21     7    21 2   
    22     8    22 2   
    23     8    23 1   
    24     9    23 1   
    25     9    38 1   
    26     9    39 1   
    27    10    40 1   
    28    11    41 1   
    29    11    42 1   
    30    11    43 1   
    31    11    56 1   
    32    12    13 ar  
    33    12    17 ar  
    34    12    56 1   
    35    13    14 ar  
    36    13    44 1   
    37    14    15 ar  
    38    14    45 1   
    39    15    16 ar  
    40    16    17 ar  
    41    16    46 1   
    42    17    18 1   
    43    19    20 1   
    44    23    47 1   
    45    24    25 ar  
    46    24    48 1   
    47    25    49 1   
    48    26    27 2   
    49    26    28 1   
    50    28    29 1   
    51    28    31 1   
    52    29    30 1   
    53    29    50 1   
    54    29    51 1   
    55    30    31 1   
    56    30    52 1   
    57    30    53 1   
    58    31    54 1   
    59    31    55 1   
@<TRIPOS>SUBSTRUCTURE
     1 IL8         1 TEMP              0 ****  ****    0 ROOT
