@<TRIPOS>MOLECULE
IL8
   56    59     1     0     0
SMALL
abcg2


@<TRIPOS>ATOM
      1 C10        -40.5500    17.6240   -14.6350 c3         1 IL8       0.145900
      2 C20        -36.3180    22.6740    -9.8380 c3         1 IL8      -0.059100
      3 C21        -36.4250    23.8820    -8.9500 ca         1 IL8      -0.067300
      4 C22        -37.6610    24.4830    -8.7070 ca         1 IL8      -0.115000
      5 C24        -36.6170    26.1780    -7.3390 ca         1 IL8      -0.138600
      6 C11        -35.5160    18.4690   -14.4590 cc         1 IL8       0.632500
      7 C14        -34.9480    20.1380   -13.3230 cd         1 IL8       0.437500
      8 C16        -34.8410    21.3700   -12.4730 c          1 IL8       0.529600
      9 C19        -36.1660    23.0750   -11.3150 c3         1 IL8       0.105000
     10 C23        -37.7590    25.6220    -7.9180 ca         1 IL8      -0.070000
     11 C01        -38.3970    13.7000   -17.7490 c3         1 IL8       0.145900
     12 C03        -38.0270    15.6080   -16.3610 ca         1 IL8       0.140100
     13 C04        -36.6470    15.5520   -16.5340 ca         1 IL8      -0.184000
     14 C05        -35.8180    16.4820   -15.9180 ca         1 IL8      -0.057000
     15 C06        -36.3630    17.4840   -15.1210 ca         1 IL8      -0.157500
     16 C07        -37.7540    17.5500   -14.9450 ca         1 IL8      -0.125000
     17 C08        -38.5860    16.6250   -15.5520 ca         1 IL8       0.098100
     18 O09        -39.9370    16.6100   -15.4320 os         1 IL8      -0.328100
     19 N12        -34.2020    18.4440   -14.4910 nd         1 IL8      -0.364300
     20 O13        -33.8200    19.5600   -13.7330 os         1 IL8      -0.058700
     21 N15        -36.0150    19.5280   -13.7260 nc         1 IL8      -0.727000
     22 O17        -33.7450    21.7880   -12.1170 o          1 IL8      -0.552100
     23 N18        -36.0260    21.9170   -12.1810 ns         1 IL8      -0.485900
     24 C25        -35.3800    25.5730    -7.5680 ca         1 IL8      -0.070000
     25 C26        -35.2860    24.4480    -8.3730 ca         1 IL8      -0.115000
     26 C27        -36.6740    27.3670    -6.4360 c          1 IL8       0.613700
     27 O28        -35.9430    27.4540    -5.4400 o          1 IL8      -0.602100
     28 N29        -37.5520    28.3360    -6.7420 nj         1 IL8      -0.417800
     29 C30        -38.2160    28.7460    -7.9980 cy         1 IL8       0.097000
     30 C31        -38.3210    30.1810    -7.4260 cy         1 IL8      -0.116400
     31 C32        -37.6150    29.6770    -6.1430 cy         1 IL8       0.097000
     32 H1         -41.6180    17.4320   -14.6830 h1         1 IL8       0.042700
     33 H2         -40.2100    17.5660   -13.5990 h1         1 IL8       0.042700
     34 H3         -40.3350    18.6180   -15.0350 h1         1 IL8       0.042700
     35 H4         -37.2080    22.0500    -9.7350 hc         1 IL8       0.059700
     36 H5         -35.4530    22.0730    -9.5520 hc         1 IL8       0.059700
     37 H6         -38.5580    24.0490    -9.1320 ha         1 IL8       0.118000
     38 H7         -35.2860    23.7040   -11.4440 h1         1 IL8       0.065700
     39 H8         -37.0390    23.6360   -11.6450 h1         1 IL8       0.065700
     40 H9         -38.7310    26.0560    -7.7300 ha         1 IL8       0.126500
     41 H10        -39.2660    13.1410   -18.0840 h1         1 IL8       0.045033
     42 H11        -37.8650    14.1100   -18.6100 h1         1 IL8       0.045033
     43 H12        -37.7310    13.0450   -17.1830 h1         1 IL8       0.045033
     44 H13        -36.2100    14.7820   -17.1510 ha         1 IL8       0.125000
     45 H14        -34.7490    16.4230   -16.0660 ha         1 IL8       0.134000
     46 H15        -38.1660    18.3310   -14.3250 ha         1 IL8       0.137000
     47 H16        -36.8580    21.4470   -12.5090 hn         1 IL8       0.341500
     48 H17        -34.4940    25.9920    -7.1090 ha         1 IL8       0.126500
     49 H18        -34.3190    23.9940    -8.5510 ha         1 IL8       0.118000
     50 H19        -39.1700    28.2470    -8.1680 h1         1 IL8       0.058700
     51 H20        -37.5820    28.6280    -8.8770 h1         1 IL8       0.058700
     52 H21        -37.7570    30.9260    -7.9810 hc         1 IL8       0.062200
     53 H22        -39.3390    30.5320    -7.2760 hc         1 IL8       0.062200
     54 H23        -36.6280    30.0960    -5.9470 h1         1 IL8       0.058700
     55 H24        -38.2100    29.7130    -5.2290 h1         1 IL8       0.058700
     56 O02        -38.9070    14.7470   -16.9200 os         1 IL8      -0.325100
@<TRIPOS>BOND
     1     1    18 1   
     2     1    32 1   
     3     1    33 1   
     4     1    34 1   
     5     2     3 1   
     6     2     9 1   
     7     2    35 1   
     8     2    36 1   
     9     3     4 ar  
    10     3    25 ar  
    11     4    10 ar  
    12     4    37 1   
    13     5    10 ar  
    14     5    24 ar  
    15     5    26 1   
    16     6    15 1   
    17     6    19 2   
    18     6    21 1   
    19     7     8 1   
    20     7    20 1   
    21     7    21 2   
    22     8    22 2   
    23     8    23 1   
    24     9    23 1   
    25     9    38 1   
    26     9    39 1   
    27    10    40 1   
    28    11    41 1   
    29    11    42 1   
    30    11    43 1   
    31    11    56 1   
    32    12    13 ar  
    33    12    17 ar  
    34    12    56 1   
    35    13    14 ar  
    36    13    44 1   
    37    14    15 ar  
    38    14    45 1   
    39    15    16 ar  
    40    16    17 ar  
    41    16    46 1   
    42    17    18 1   
    43    19    20 1   
    44    23    47 1   
    45    24    25 ar  
    46    24    48 1   
    47    25    49 1   
    48    26    27 2   
    49    26    28 1   
    50    28    29 1   
    51    28    31 1   
    52    29    30 1   
    53    29    50 1   
    54    29    51 1   
    55    30    31 1   
    56    30    52 1   
    57    30    53 1   
    58    31    54 1   
    59    31    55 1   
@<TRIPOS>SUBSTRUCTURE
     1 IL8         1 TEMP              0 ****  ****    0 ROOT
