@<TRIPOS>MOLECULE
IL9
   58    61     1     0     0
SMALL
No Charge or Current Charge


@<TRIPOS>ATOM
      1 C10         27.0020   -42.7000   -16.2120 ca         1 IL9       0.374900
      2 C11         26.3460   -43.8460   -15.6750 ca         1 IL9       0.292300
      3 C13         28.3830   -44.5770   -14.8370 ca         1 IL9       0.182500
      4 C15         29.1890   -45.5940   -14.0440 c          1 IL9       0.531600
      5 C18         24.2470   -45.4310   -16.0450 cx         1 IL9      -0.105400
      6 C19         23.9910   -44.6730   -14.7650 cx         1 IL9      -0.105400
      7 C20         28.8650   -47.7730   -12.8470 cc         1 IL9       0.012600
      8 C21         28.0450   -48.7940   -12.4540 cd         1 IL9      -0.279600
      9 C24         30.1470   -48.0690   -12.3490 cc         1 IL9       0.231900
     10 C26         26.5900   -48.8770   -12.7740 c          1 IL9       0.647700
     11 C1          33.0700   -40.3530   -16.6810 ca         1 IL9       0.082900
     12 N2          31.9370   -40.4950   -17.4000 nb         1 IL9      -0.153000
     13 C3          31.0450   -41.4050   -16.9510 ca         1 IL9       0.067900
     14 C4          31.2780   -42.1730   -15.7830 ca         1 IL9       0.209000
     15 C5          32.5090   -41.9450   -15.1260 ca         1 IL9       0.067900
     16 N6          33.4050   -41.0360   -15.5670 nb         1 IL9      -0.153000
     17 C8          29.0260   -43.4220   -15.4020 ca         1 IL9       0.617900
     18 N9          28.3400   -42.4790   -16.0770 nb         1 IL9      -0.723000
     19 N12         27.0310   -44.7930   -14.9800 nb         1 IL9      -0.621000
     20 C14         24.8580   -44.0580   -15.8460 cx         1 IL9      -0.195000
     21 N16         28.4550   -46.6760   -13.5960 ns         1 IL9      -0.344100
     22 O17         30.3890   -45.4730   -13.8070 o          1 IL9      -0.630100
     23 N22         28.8970   -49.6570   -11.7270 na         1 IL9       0.150800
     24 N23         30.2050   -49.1940   -11.6700 nd         1 IL9      -0.496800
     25 O27         25.9940   -48.0250   -13.4170 o          1 IL9      -0.617100
     26 N28         25.9540   -49.9910   -12.2930 ns         1 IL9      -0.489900
     27 C29         24.5200   -50.2730   -12.4260 c3         1 IL9       0.111000
     28 C30         23.9550   -51.0370   -11.1920 c3         1 IL9       0.160000
     29 O31         24.8260   -52.1330   -10.8850 oh         1 IL9      -0.673000
     30 C32         23.9070   -50.1220    -9.9460 c3         1 IL9      -0.120600
     31 C33         22.5560   -51.6130   -11.4990 c3         1 IL9      -0.120600
     32 H1          26.4410   -41.9450   -16.7610 h4         1 IL9       0.033100
     33 H2          23.4250   -45.5240   -16.7520 hc         1 IL9       0.078950
     34 H3          24.8970   -46.3020   -15.9930 hc         1 IL9       0.078950
     35 H4          24.4720   -45.0380   -13.8600 hc         1 IL9       0.078950
     36 H5          22.9980   -44.2560   -14.6130 hc         1 IL9       0.078950
     37 H6          31.0530   -47.4900   -12.4610 h4         1 IL9       0.066100
     38 H7          29.4490   -51.3380   -10.5680 h1         1 IL9       0.063367
     39 H8          27.7900   -50.7450   -10.2920 h1         1 IL9       0.063367
     40 H9          28.1920   -51.6480   -11.7940 h1         1 IL9       0.063367
     41 H10         33.7900   -39.6200   -17.0400 h5         1 IL9       0.051100
     42 H11         30.1520   -41.5250   -17.5580 h4         1 IL9       0.041100
     43 H12         32.7810   -42.4960   -14.2280 h4         1 IL9       0.041100
     44 H13         30.8250   -43.8320   -14.6440 hn         1 IL9       0.547000
     45 H14         24.4030   -43.2510   -16.4160 hc         1 IL9       0.083700
     46 H15         27.4720   -46.6330   -13.8650 hn         1 IL9       0.380500
     47 H16         26.5010   -50.6560   -11.7680 hn         1 IL9       0.326500
     48 H17         23.9650   -49.3340   -12.5580 h1         1 IL9       0.067700
     49 H18         24.3730   -50.8780   -13.3300 h1         1 IL9       0.067700
     50 H19         24.3950   -52.6520   -10.1720 ho         1 IL9       0.446000
     51 H20         23.5120   -50.6610    -9.0760 hc         1 IL9       0.045700
     52 H21         24.9060   -49.7500    -9.6890 hc         1 IL9       0.045700
     53 H22         23.2590   -49.2560   -10.1280 hc         1 IL9       0.045700
     54 H23         22.1540   -52.1600   -10.6380 hc         1 IL9       0.045700
     55 H24         21.8530   -50.8090   -11.7470 hc         1 IL9       0.045700
     56 H25         22.5960   -52.3030   -12.3520 hc         1 IL9       0.045700
     57 N7          30.3890   -43.1500   -15.2810 nu         1 IL9      -0.916900
     58 C25         28.5570   -50.9250   -11.0550 c3         1 IL9       0.066900
@<TRIPOS>BOND
     1     1     2 ar  
     2     1    18 ar  
     3     1    32 1   
     4     2    19 ar  
     5     2    20 1   
     6     3     4 1   
     7     3    17 ar  
     8     3    19 ar  
     9     4    21 1   
    10     4    22 2   
    11     5     6 1   
    12     5    20 1   
    13     5    33 1   
    14     5    34 1   
    15     6    20 1   
    16     6    35 1   
    17     6    36 1   
    18     7     8 2   
    19     7     9 1   
    20     7    21 1   
    21     8    10 1   
    22     8    23 1   
    23     9    24 2   
    24     9    37 1   
    25    10    25 2   
    26    10    26 1   
    27    11    12 ar  
    28    11    16 ar  
    29    11    41 1   
    30    12    13 ar  
    31    13    14 ar  
    32    13    42 1   
    33    14    15 ar  
    34    14    57 1   
    35    15    16 ar  
    36    15    43 1   
    37    17    18 ar  
    38    17    57 1   
    39    20    45 1   
    40    21    46 1   
    41    23    24 1   
    42    23    58 1   
    43    26    27 1   
    44    26    47 1   
    45    27    28 1   
    46    27    48 1   
    47    27    49 1   
    48    28    29 1   
    49    28    30 1   
    50    28    31 1   
    51    29    50 1   
    52    30    51 1   
    53    30    52 1   
    54    30    53 1   
    55    31    54 1   
    56    31    55 1   
    57    31    56 1   
    58    38    58 1   
    59    39    58 1   
    60    40    58 1   
    61    44    57 1   
@<TRIPOS>SUBSTRUCTURE
     1 IL9         1 TEMP              0 ****  ****    0 ROOT
