@<TRIPOS>MOLECULE
IL9
   58    61     1     0     0
SMALL
abcg2


@<TRIPOS>ATOM
      1 C10         26.9590   -42.8620   -16.1390 ca         1 IL9       0.374900
      2 C11         26.3260   -43.8860   -15.4350 ca         1 IL9       0.292300
      3 C13         28.3870   -44.5750   -14.6920 ca         1 IL9       0.182500
      4 C15         29.1410   -45.5650   -13.8690 c          1 IL9       0.531600
      5 C18         24.2790   -45.4570   -15.4400 cx         1 IL9      -0.105400
      6 C19         24.1480   -44.5840   -14.2410 cx         1 IL9      -0.105400
      7 C20         28.7910   -47.5340   -12.4920 cc         1 IL9       0.012600
      8 C21         27.9970   -48.6040   -12.1010 cd         1 IL9      -0.279600
      9 C24         30.0430   -47.7810   -11.9100 cc         1 IL9       0.231900
     10 C26         26.5820   -48.8080   -12.4760 c          1 IL9       0.647700
     11 C1          32.9080   -40.7000   -17.0770 ca         1 IL9       0.082900
     12 N2          31.6480   -40.6080   -17.4580 nb         1 IL9      -0.153000
     13 C3          30.7710   -41.4550   -16.9330 ca         1 IL9       0.067900
     14 C4          31.1590   -42.4210   -16.0000 ca         1 IL9       0.209000
     15 C5          32.5220   -42.4210   -15.6770 ca         1 IL9       0.067900
     16 N6          33.3860   -41.5770   -16.2040 nb         1 IL9      -0.153000
     17 C8          29.0150   -43.5300   -15.4120 ca         1 IL9       0.617900
     18 N9          28.2660   -42.6950   -16.1250 nb         1 IL9      -0.723000
     19 N12         27.0750   -44.7140   -14.7280 nb         1 IL9      -0.621000
     20 C14         24.8630   -44.0680   -15.4610 cx         1 IL9      -0.195000
     21 N16         28.3600   -46.4880   -13.2880 ns         1 IL9      -0.344100
     22 O17         30.3610   -45.5240   -13.7490 o          1 IL9      -0.630100
     23 N22         28.7860   -49.3840   -11.3160 na         1 IL9       0.150800
     24 N23         30.0040   -48.8960   -11.2000 nd         1 IL9      -0.496800
     25 O27         25.8870   -47.8230   -12.7110 o          1 IL9      -0.617100
     26 N28         26.1440   -50.0690   -12.5790 ns         1 IL9      -0.489900
     27 C29         24.7770   -50.4370   -12.8640 c3         1 IL9       0.111000
     28 C30         24.0650   -51.0620   -11.6610 c3         1 IL9       0.160000
     29 O31         24.8490   -52.1900   -11.3000 oh         1 IL9      -0.673000
     30 C32         23.9770   -50.0750   -10.5020 c3         1 IL9      -0.120600
     31 C33         22.6680   -51.4940   -12.0970 c3         1 IL9      -0.120600
     32 H1          26.3820   -42.1600   -16.7310 h4         1 IL9       0.033100
     33 H2          23.4040   -45.6370   -16.0500 hc         1 IL9       0.078950
     34 H3          24.9760   -46.2850   -15.3900 hc         1 IL9       0.078950
     35 H4          24.7550   -44.8170   -13.3750 hc         1 IL9       0.078950
     36 H5          23.1810   -44.1550   -14.0130 hc         1 IL9       0.078950
     37 H6          30.9480   -47.2020   -11.9650 h4         1 IL9       0.066100
     38 H7          29.1430   -50.6780    -9.7550 h1         1 IL9       0.063367
     39 H8          27.4360   -50.5160   -10.1840 h1         1 IL9       0.063367
     40 H9          28.5270   -51.4730   -11.2090 h1         1 IL9       0.063367
     41 H10         33.6130   -40.0020   -17.5140 h5         1 IL9       0.051100
     42 H11         29.7450   -41.3640   -17.2560 h4         1 IL9       0.041100
     43 H12         32.9070   -43.1420   -14.9610 h4         1 IL9       0.041100
     44 H13         30.8430   -44.0410   -14.7930 hn         1 IL9       0.547000
     45 H14         24.3360   -43.3320   -16.0570 hc         1 IL9       0.083700
     46 H15         27.3620   -46.4200   -13.4540 hn         1 IL9       0.380500
     47 H16         26.7980   -50.8290   -12.4910 hn         1 IL9       0.326500
     48 H17         24.2320   -49.5560   -13.1950 h1         1 IL9       0.067700
     49 H18         24.7790   -51.1490   -13.6940 h1         1 IL9       0.067700
     50 H19         24.4720   -52.5810   -10.5050 ho         1 IL9       0.446000
     51 H20         23.4570   -50.5260    -9.6540 hc         1 IL9       0.045700
     52 H21         24.9660   -49.7680   -10.1600 hc         1 IL9       0.045700
     53 H22         23.4240   -49.1800   -10.7890 hc         1 IL9       0.045700
     54 H23         22.1410   -51.9800   -11.2730 hc         1 IL9       0.045700
     55 H24         22.0680   -50.6380   -12.4100 hc         1 IL9       0.045700
     56 H25         22.7140   -52.1970   -12.9310 hc         1 IL9       0.045700
     57 N7          30.3650   -43.3660   -15.3840 nu         1 IL9      -0.916900
     58 C25         28.4450   -50.5850   -10.5810 c3         1 IL9       0.066900
@<TRIPOS>BOND
     1     1     2 ar  
     2     1    18 ar  
     3     1    32 1   
     4     2    19 ar  
     5     2    20 1   
     6     3     4 1   
     7     3    17 ar  
     8     3    19 ar  
     9     4    21 1   
    10     4    22 2   
    11     5     6 1   
    12     5    20 1   
    13     5    33 1   
    14     5    34 1   
    15     6    20 1   
    16     6    35 1   
    17     6    36 1   
    18     7     8 2   
    19     7     9 1   
    20     7    21 1   
    21     8    10 1   
    22     8    23 1   
    23     9    24 2   
    24     9    37 1   
    25    10    25 2   
    26    10    26 1   
    27    11    12 ar  
    28    11    16 ar  
    29    11    41 1   
    30    12    13 ar  
    31    13    14 ar  
    32    13    42 1   
    33    14    15 ar  
    34    14    57 1   
    35    15    16 ar  
    36    15    43 1   
    37    17    18 ar  
    38    17    57 1   
    39    20    45 1   
    40    21    46 1   
    41    23    24 1   
    42    23    58 1   
    43    26    27 1   
    44    26    47 1   
    45    27    28 1   
    46    27    48 1   
    47    27    49 1   
    48    28    29 1   
    49    28    30 1   
    50    28    31 1   
    51    29    50 1   
    52    30    51 1   
    53    30    52 1   
    54    30    53 1   
    55    31    54 1   
    56    31    55 1   
    57    31    56 1   
    58    38    58 1   
    59    39    58 1   
    60    40    58 1   
    61    44    57 1   
@<TRIPOS>SUBSTRUCTURE
     1 IL9         1 TEMP              0 ****  ****    0 ROOT
