@<TRIPOS>MOLECULE
ILA
   57    59     1     0     0
SMALL
No Charge or Current Charge


@<TRIPOS>ATOM
      1 N           -1.9250     1.9070     1.9320 n8         1 ILA      -1.022200
      2 CA          -1.4570     1.0190     3.0500 c3         1 ILA       0.094500
      3 CB          -2.6120     0.0850     3.5530 c3         1 ILA      -0.090700
      4 CG2         -2.1300    -0.8490     4.7000 c3         1 ILA      -0.093100
      5 CG1         -3.8840     0.8880     3.9800 c3         1 ILA      -0.073400
      6 CD          -5.0990     0.0260     4.3880 c3         1 ILA      -0.088100
      7 C           -0.1320     0.2250     2.7320 c          1 ILA       0.634100
      8 O           -0.0810    -0.7090     1.9420 o          1 ILA      -0.564100
      9 SA           2.4610    -0.0720     3.4030 s6         1 ILA       1.293900
     10 O1A          3.4520     0.9420     3.7530 o          1 ILA      -0.534000
     11 O2A          2.3550    -1.2970     4.1930 o          1 ILA      -0.534000
     12 N3A          0.9820     0.6590     3.3740 ns         1 ILA      -0.606300
     13 N5           2.7890    -0.5680     1.8620 n7         1 ILA      -0.876300
     14 C5           3.2320     0.4310     0.8680 c3         1 ILA       0.183800
     15 C4           3.3260    -0.1880    -0.5540 c5         1 ILA       0.163300
     16 O4           2.0120    -0.6940    -0.9290 os         1 ILA      -0.448000
     17 C1           1.5480     0.0050    -2.1050 c5         1 ILA       0.316300
     18 N9           0.0970     0.1190    -2.0460 na         1 ILA      -0.290300
     19 C9          -0.8350    -0.2930    -2.9600 ca         1 ILA       0.145500
     20 N3          -0.6890    -0.8850    -4.1620 nb         1 ILA      -0.216000
     21 C2          -1.8340    -1.1620    -4.8290 ca         1 ILA       0.184900
     22 N1          -3.0960    -0.9040    -4.4110 nb         1 ILA      -0.301000
     23 C6          -3.2080    -0.3170    -3.2100 ca         1 ILA       0.450900
     24 N6          -4.4740    -0.0530    -2.7910 nv         1 ILA      -1.065900
     25 C7          -2.0700     0.0110    -2.4430 ca         1 ILA      -0.099600
     26 N7          -1.9890     0.6250    -1.1970 nc         1 ILA      -0.561100
     27 C8          -0.6580     0.6650    -0.9970 cd         1 ILA       0.412700
     28 C10          2.3400     1.3540    -2.1060 c5         1 ILA       0.082300
     29 O2           2.4010     2.0120    -3.3880 oh         1 ILA      -0.692000
     30 C3           3.7360     0.8290    -1.6750 c5         1 ILA       0.111300
     31 O3           4.3890     0.2080    -2.7900 oh         1 ILA      -0.700000
     32 HN1         -2.1980     1.3280     1.1250 hn         1 ILA       0.422500
     33 HN2         -2.8050     2.3590     2.2050 hn         1 ILA       0.422500
     34 HA1         -1.2100     1.6840     3.8890 h1         1 ILA       0.061700
     35 HB          -2.8970    -0.5620     2.7130 hc         1 ILA       0.071700
     36 HG21        -1.8470    -0.2670     5.5850 hc         1 ILA       0.041700
     37 HG22        -2.9130    -1.5580     4.9930 hc         1 ILA       0.041700
     38 HG23        -1.2670    -1.4530     4.3990 hc         1 ILA       0.041700
     39 HG11        -4.2150     1.5270     3.1540 hc         1 ILA       0.034700
     40 HG12        -3.6310     1.5590     4.8110 hc         1 ILA       0.034700
     41 HD1         -5.9830     0.6600     4.5270 hc         1 ILA       0.036367
     42 HD2         -5.3310    -0.7140     3.6120 hc         1 ILA       0.036367
     43 HD3         -4.9180    -0.5010     5.3320 hc         1 ILA       0.036367
     44 HNA          0.9370     1.4480     3.9960 hn         1 ILA       0.346500
     45 HN5          1.8440    -0.8670     1.5990 hn         1 ILA       0.520000
     46 H51          2.5380     1.2830     0.8370 h1         1 ILA       0.054200
     47 H52          4.2220     0.8240     1.1370 h1         1 ILA       0.054200
     48 H4           4.0360    -1.0250    -0.5110 h1         1 ILA       0.114700
     49 H1           1.7950    -0.5800    -3.0010 h2         1 ILA       0.127700
     50 H2          -1.7290    -1.6390    -5.8020 h5         1 ILA       0.047100
     51 H61         -5.2130    -0.0330    -3.4890 hn         1 ILA       0.505500
     52 H62         -4.5740     0.5810    -2.0010 hn         1 ILA       0.505500
     53 H8          -0.1670     1.0820    -0.1250 h5         1 ILA       0.073800
     54 H7           1.9380     2.0380    -1.3450 h1         1 ILA       0.051700
     55 HO2          1.5240     2.4370    -3.5490 ho         1 ILA       0.517000
     56 H3           4.3600     1.6400    -1.2730 h1         1 ILA       0.057700
     57 HO3          4.1020     0.7530    -3.5650 ho         1 ILA       0.525000
@<TRIPOS>BOND
     1     1     2 1   
     2     1    32 1   
     3     1    33 1   
     4     2     3 1   
     5     2     7 1   
     6     2    34 1   
     7     3     4 1   
     8     3     5 1   
     9     3    35 1   
    10     4    36 1   
    11     4    37 1   
    12     4    38 1   
    13     5     6 1   
    14     5    39 1   
    15     5    40 1   
    16     6    41 1   
    17     6    42 1   
    18     6    43 1   
    19     7     8 2   
    20     7    12 1   
    21     9    10 2   
    22     9    11 2   
    23     9    12 1   
    24     9    13 1   
    25    12    44 1   
    26    13    14 1   
    27    13    45 1   
    28    14    15 1   
    29    14    46 1   
    30    14    47 1   
    31    15    16 1   
    32    15    30 1   
    33    15    48 1   
    34    16    17 1   
    35    17    18 1   
    36    17    28 1   
    37    17    49 1   
    38    18    19 1   
    39    18    27 1   
    40    19    20 ar  
    41    19    25 ar  
    42    20    21 ar  
    43    21    22 ar  
    44    21    50 1   
    45    22    23 ar  
    46    23    24 1   
    47    23    25 ar  
    48    24    51 1   
    49    24    52 1   
    50    25    26 1   
    51    26    27 2   
    52    27    53 1   
    53    28    29 1   
    54    28    30 1   
    55    28    54 1   
    56    29    55 1   
    57    30    31 1   
    58    30    56 1   
    59    31    57 1   
@<TRIPOS>SUBSTRUCTURE
     1 ILA         1 TEMP              0 ****  ****    0 ROOT
