@<TRIPOS>MOLECULE
ILA
   57    59     1     0     0
SMALL
bcc


@<TRIPOS>ATOM
      1 N           -1.7880     1.5540     1.7640 n8         1 ILA      -0.911800
      2 CA          -1.4350     0.9140     3.0180 c3         1 ILA       0.094500
      3 CB          -2.5740     0.2170     3.7890 c3         1 ILA      -0.090700
      4 CG2         -2.0350    -0.4380     5.0590 c3         1 ILA      -0.093100
      5 CG1         -3.6930     1.2150     4.0970 c3         1 ILA      -0.073400
      6 CD          -4.9190     0.5860     4.7460 c3         1 ILA      -0.088100
      7 C           -0.3550    -0.1000     2.6790 c          1 ILA       0.701100
      8 O           -0.5390    -1.0200     1.9100 o          1 ILA      -0.564100
      9 SA           2.1640    -0.9420     3.0420 s6         1 ILA       1.435500
     10 O1A          3.2570    -0.2800     3.7150 o          1 ILA      -0.604800
     11 O2A          1.7600    -2.2760     3.4100 o          1 ILA      -0.604800
     12 N3A          0.8580     0.1000     3.2780 ns         1 ILA      -0.673300
     13 N5           2.4680    -0.9470     1.4410 n7         1 ILA      -0.821100
     14 C5           2.8500     0.3050     0.7970 c3         1 ILA       0.183800
     15 C4           3.2110     0.0240    -0.6520 c5         1 ILA       0.140100
     16 O4           2.1120    -0.6010    -1.3200 os         1 ILA      -0.401600
     17 C1           1.5380     0.2740    -2.2600 c5         1 ILA       0.263800
     18 N9           0.1050     0.1910    -2.1960 na         1 ILA      -0.261000
     19 C9          -0.7140    -0.3510    -3.1480 ca         1 ILA       0.473800
     20 N3          -0.3800    -0.8620    -4.3300 nb         1 ILA      -0.742000
     21 C2          -1.4400    -1.2850    -4.9970 ca         1 ILA       0.710900
     22 N1          -2.7180    -1.2490    -4.6280 nb         1 ILA      -0.827000
     23 C6          -3.0370    -0.7340    -3.4340 ca         1 ILA       0.779200
     24 N6          -4.3160    -0.7010    -3.0580 nv         1 ILA      -0.955500
     25 C7          -1.9920    -0.2530    -2.6250 ca         1 ILA      -0.230200
     26 N7          -1.9660     0.3250    -1.3810 nc         1 ILA      -0.561100
     27 C8          -0.7100     0.5710    -1.1620 cd         1 ILA       0.412700
     28 C10          2.0960     1.6590    -1.9320 c5         1 ILA       0.059100
     29 O2           2.0660     2.4610    -3.0730 oh         1 ILA      -0.569800
     30 C3           3.4970     1.3030    -1.4290 c5         1 ILA       0.088100
     31 O3           4.3470     0.9930    -2.5000 oh         1 ILA      -0.577800
     32 HN1         -2.3450     0.9350     1.1860 hn         1 ILA       0.367300
     33 HN2         -2.3460     2.3780     1.9380 hn         1 ILA       0.367300
     34 HA1         -1.0140     1.6870     3.6690 h1         1 ILA       0.061700
     35 HB          -2.9860    -0.5650     3.1390 hc         1 ILA       0.071700
     36 HG21        -1.5670     0.3010     5.7140 hc         1 ILA       0.041700
     37 HG22        -2.8300    -0.9230     5.6240 hc         1 ILA       0.041700
     38 HG23        -1.2920    -1.2090     4.8470 hc         1 ILA       0.041700
     39 HG11        -4.0100     1.6960     3.1690 hc         1 ILA       0.034700
     40 HG12        -3.3010     2.0120     4.7380 hc         1 ILA       0.034700
     41 HD1         -5.7290     1.3120     4.8250 hc         1 ILA       0.036367
     42 HD2         -5.2870    -0.2540     4.1540 hc         1 ILA       0.036367
     43 HD3         -4.7170     0.2190     5.7520 hc         1 ILA       0.036367
     44 HNA          1.0220     0.9030     3.8720 hn         1 ILA       0.346500
     45 HN5          1.7750    -1.4850     0.9280 hn         1 ILA       0.464800
     46 H51          2.0560     1.0580     0.8640 h1         1 ILA       0.054200
     47 H52          3.7300     0.7070     1.2990 h1         1 ILA       0.054200
     48 H4           4.0670    -0.6550    -0.6800 h1         1 ILA       0.114700
     49 H1           1.8160    -0.0150    -3.2790 h2         1 ILA       0.127700
     50 H2          -1.2490    -1.7180    -5.9730 h5         1 ILA       0.047100
     51 H61         -5.0370    -1.0100    -3.6860 hn         1 ILA       0.450300
     52 H62         -4.5900    -0.2840    -2.1860 hn         1 ILA       0.450300
     53 H8          -0.3360     1.0340    -0.2610 h5         1 ILA       0.073800
     54 H7           1.5270     2.1090    -1.1090 h1         1 ILA       0.051700
     55 HO2          2.1230     3.3840    -2.8070 ho         1 ILA       0.418000
     56 H3           3.9180     2.0880    -0.7870 h1         1 ILA       0.057700
     57 HO3          4.2260     1.6670    -3.1800 ho         1 ILA       0.426000
@<TRIPOS>BOND
     1     1     2 1   
     2     1    32 1   
     3     1    33 1   
     4     2     3 1   
     5     2     7 1   
     6     2    34 1   
     7     3     4 1   
     8     3     5 1   
     9     3    35 1   
    10     4    36 1   
    11     4    37 1   
    12     4    38 1   
    13     5     6 1   
    14     5    39 1   
    15     5    40 1   
    16     6    41 1   
    17     6    42 1   
    18     6    43 1   
    19     7     8 2   
    20     7    12 1   
    21     9    10 2   
    22     9    11 2   
    23     9    12 1   
    24     9    13 1   
    25    12    44 1   
    26    13    14 1   
    27    13    45 1   
    28    14    15 1   
    29    14    46 1   
    30    14    47 1   
    31    15    16 1   
    32    15    30 1   
    33    15    48 1   
    34    16    17 1   
    35    17    18 1   
    36    17    28 1   
    37    17    49 1   
    38    18    19 1   
    39    18    27 1   
    40    19    20 ar  
    41    19    25 ar  
    42    20    21 ar  
    43    21    22 ar  
    44    21    50 1   
    45    22    23 ar  
    46    23    24 1   
    47    23    25 ar  
    48    24    51 1   
    49    24    52 1   
    50    25    26 1   
    51    26    27 2   
    52    27    53 1   
    53    28    29 1   
    54    28    30 1   
    55    28    54 1   
    56    29    55 1   
    57    30    31 1   
    58    30    56 1   
    59    31    57 1   
@<TRIPOS>SUBSTRUCTURE
     1 ILA         1 TEMP              0 ****  ****    0 ROOT
