@<TRIPOS>MOLECULE
ILB
   43    45     1     0     0
SMALL
No Charge or Current Charge


@<TRIPOS>ATOM
      1 C1           4.7550    -0.6800    -2.7180 ca         1 ILB      -0.106000
      2 C2           5.6780    -0.3810    -1.7040 ca         1 ILB      -0.107000
      3 C3           5.2370     0.0550    -0.4450 ca         1 ILB       0.086100
      4 C7           3.3790    -0.5430    -2.4760 ca         1 ILB      -0.091000
      5 C8           0.9280     1.0930    -0.1530 ca         1 ILB      -0.156500
      6 C9          -0.4480     1.2320     0.0840 ca         1 ILB       0.186500
      7 C11         -1.3730     0.3220    -0.4620 ca         1 ILB      -0.079000
      8 C13         -0.8860    -0.7150    -1.2890 ca         1 ILB       0.186500
      9 C15          0.4910    -0.8500    -1.5290 ca         1 ILB      -0.156500
     10 C16         -3.7590    -0.4070     0.1030 c          1 ILB       0.644300
     11 C19         -6.3520    -0.3900     0.4880 ce         1 ILB      -0.018400
     12 C20         -7.4790     0.6550     0.5010 c5         1 ILB      -0.063200
     13 C21         -6.6930     1.9490     0.8360 c5         1 ILB      -0.081400
     14 C22         -5.3670     1.7190     0.0790 c5         1 ILB      -0.026200
     15 C27          5.9250     0.7870     1.8430 c3         1 ILB       0.513000
     16 C4           3.8490     0.1920    -0.2060 ca         1 ILB      -0.088000
     17 C5           2.8980    -0.1040    -1.2170 cp         1 ILB      -0.009000
     18 C6           1.4300     0.0440    -0.9610 cp         1 ILB      -0.020000
     19 F14         -1.7330    -1.5630    -1.9130 f          1 ILB      -0.158500
     20 C17         -5.1340     0.1980     0.2230 cf         1 ILB      -0.296400
     21 O18         -3.5180    -1.5920     0.2730 o          1 ILB      -0.547100
     22 O24         -6.0010    -2.7370     0.7820 o          1 ILB      -0.703500
     23 O25         -8.0110    -2.0420     0.9110 o          1 ILB      -0.703500
     24 O26          6.2070     0.3270     0.5050 os         1 ILB      -0.406100
     25 F28          5.1870    -0.1050     2.5430 f          1 ILB      -0.109667
     26 F29          7.0720     0.9730     2.5330 f          1 ILB      -0.109667
     27 F30          5.2670     1.9690     1.8480 f          1 ILB      -0.109667
     28 H1           5.1050    -1.0140    -3.6920 ha         1 ILB       0.117000
     29 H2           6.7440    -0.4880    -1.8940 ha         1 ILB       0.129000
     30 H7           2.6790    -0.7650    -3.2780 ha         1 ILB       0.125000
     31 H8           1.6080     1.8190     0.2830 ha         1 ILB       0.130500
     32 H15          0.8300    -1.6650    -2.1630 ha         1 ILB       0.130500
     33 H201        -7.9700     0.7140    -0.4770 hc         1 ILB       0.058700
     34 H202        -8.2510     0.4610     1.2540 hc         1 ILB       0.058700
     35 H211        -6.5170     2.0310     1.9150 hc         1 ILB       0.027700
     36 H212        -7.2140     2.8590     0.5170 hc         1 ILB       0.027700
     37 H221        -4.5620     2.3230     0.5150 hc         1 ILB       0.020700
     38 H222        -5.4530     2.0010    -0.9770 hc         1 ILB       0.020700
     39 H4           3.4830     0.5120     0.7620 ha         1 ILB       0.142000
     40 HN12        -3.0690     1.4710    -0.2280 hn         1 ILB       0.157000
     41 F10         -0.8810     2.2540     0.8570 f          1 ILB      -0.158500
     42 N12         -2.7600     0.5090    -0.1940 ns         1 ILB      -0.183000
     43 C23         -6.8150    -1.8270     0.7490 c          1 ILB       0.726200
@<TRIPOS>BOND
     1     1     2 ar  
     2     1     4 ar  
     3     1    28 1   
     4     2     3 ar  
     5     2    29 1   
     6     3    16 ar  
     7     3    24 1   
     8     4    17 ar  
     9     4    30 1   
    10     5     6 ar  
    11     5    18 ar  
    12     5    31 1   
    13     6     7 ar  
    14     6    41 1   
    15     7     8 ar  
    16     7    42 1   
    17     8     9 ar  
    18     8    19 1   
    19     9    18 ar  
    20     9    32 1   
    21    10    20 1   
    22    10    21 2   
    23    10    42 1   
    24    11    12 1   
    25    11    20 2   
    26    11    43 1   
    27    12    13 1   
    28    12    33 1   
    29    12    34 1   
    30    13    14 1   
    31    13    35 1   
    32    13    36 1   
    33    14    20 1   
    34    14    37 1   
    35    14    38 1   
    36    15    24 1   
    37    15    25 1   
    38    15    26 1   
    39    15    27 1   
    40    16    17 ar  
    41    16    39 1   
    42    17    18 1   
    43    22    43 1   
    44    23    43 1   
    45    40    42 1   
@<TRIPOS>SUBSTRUCTURE
     1 ILB         1 TEMP              0 ****  ****    0 ROOT
