@<TRIPOS>MOLECULE
ILB
   43    45     1     0     0
SMALL
bcc


@<TRIPOS>ATOM
      1 C1           4.6150    -0.5260    -2.4660 ca         1 ILB      -0.124000
      2 C2           5.4970    -0.2370    -1.4360 ca         1 ILB      -0.125000
      3 C3           4.9790     0.2270    -0.2390 ca         1 ILB       0.086100
      4 C7           3.2500    -0.3530    -2.2970 ca         1 ILB      -0.109000
      5 C8           0.8120     1.4410    -0.2190 ca         1 ILB      -0.174500
      6 C9          -0.5490     1.6100    -0.0770 ca         1 ILB       0.151400
      7 C11         -1.4830     0.7340    -0.6150 ca         1 ILB       0.013600
      8 C13         -0.9700    -0.3540    -1.3110 ca         1 ILB       0.151400
      9 C15          0.3820    -0.5740    -1.4620 ca         1 ILB      -0.174500
     10 C16         -3.6580     0.0860     0.2260 c          1 ILB       0.711300
     11 C19         -6.0240    -0.3150     0.8140 ce         1 ILB      -0.018400
     12 C20         -7.3850     0.2890     0.6090 c5         1 ILB      -0.063200
     13 C21         -7.0890     1.7330     0.1870 c5         1 ILB      -0.081400
     14 C22         -5.6580     1.7020    -0.3700 c5         1 ILB      -0.026200
     15 C27          6.1970    -0.3940     1.6570 c3         1 ILB       0.853700
     16 C4           3.6230     0.4160    -0.0520 ca         1 ILB      -0.106000
     17 C5           2.7400     0.1270    -1.0910 cp         1 ILB      -0.009000
     18 C6           1.2890     0.3330    -0.9170 cp         1 ILB      -0.020000
     19 F14         -1.8300    -1.2140    -1.8580 f          1 ILB      -0.123400
     20 C17         -5.0750     0.4620     0.2700 cf         1 ILB      -0.296400
     21 O18         -3.2000    -0.9150     0.7520 o          1 ILB      -0.547100
     22 O24         -5.7300    -1.6040     2.7350 o          1 ILB      -0.808800
     23 O25         -6.0640    -2.6470     0.7840 o          1 ILB      -0.808800
     24 O26          5.8500     0.5660     0.7910 os         1 ILB      -0.382900
     25 F28          6.8030    -1.4270     1.0670 f          1 ILB      -0.230967
     26 F29          7.0360     0.1370     2.5320 f          1 ILB      -0.230967
     27 F30          5.1530    -0.8910     2.3220 f          1 ILB      -0.230967
     28 H1           4.9980    -0.8830    -3.4130 ha         1 ILB       0.135000
     29 H2           6.5640    -0.3540    -1.5710 ha         1 ILB       0.147000
     30 H7           2.5820    -0.5650    -3.1210 ha         1 ILB       0.143000
     31 H8           1.4850     2.1770     0.2010 ha         1 ILB       0.148500
     32 H15          0.7200    -1.4540    -1.9930 ha         1 ILB       0.148500
     33 H201        -7.9080    -0.2720    -0.1740 hc         1 ILB       0.058700
     34 H202        -8.0110     0.2250     1.5010 hc         1 ILB       0.058700
     35 H211        -7.1200     2.3790     1.0660 hc         1 ILB       0.027700
     36 H212        -7.8110     2.1250    -0.5290 hc         1 ILB       0.027700
     37 H221        -5.1150     2.6180    -0.1160 hc         1 ILB       0.020700
     38 H222        -5.6480     1.6220    -1.4620 hc         1 ILB       0.020700
     39 H4           3.2550     0.7820     0.8980 ha         1 ILB       0.160000
     40 HN12        -3.2350     1.8160    -0.8170 hn         1 ILB       0.323500
     41 F10         -1.0060     2.6730     0.5910 f          1 ILB      -0.123400
     42 N12         -2.8570     0.9480    -0.4730 ns         1 ILB      -0.509100
     43 C23         -5.8990    -1.6480     1.5050 c          1 ILB       0.936800
@<TRIPOS>BOND
     1     1     2 ar  
     2     1     4 ar  
     3     1    28 1   
     4     2     3 ar  
     5     2    29 1   
     6     3    16 ar  
     7     3    24 1   
     8     4    17 ar  
     9     4    30 1   
    10     5     6 ar  
    11     5    18 ar  
    12     5    31 1   
    13     6     7 ar  
    14     6    41 1   
    15     7     8 ar  
    16     7    42 1   
    17     8     9 ar  
    18     8    19 1   
    19     9    18 ar  
    20     9    32 1   
    21    10    20 1   
    22    10    21 2   
    23    10    42 1   
    24    11    12 1   
    25    11    20 2   
    26    11    43 1   
    27    12    13 1   
    28    12    33 1   
    29    12    34 1   
    30    13    14 1   
    31    13    35 1   
    32    13    36 1   
    33    14    20 1   
    34    14    37 1   
    35    14    38 1   
    36    15    24 1   
    37    15    25 1   
    38    15    26 1   
    39    15    27 1   
    40    16    17 ar  
    41    16    39 1   
    42    17    18 1   
    43    22    43 1   
    44    23    43 1   
    45    40    42 1   
@<TRIPOS>SUBSTRUCTURE
     1 ILB         1 TEMP              0 ****  ****    0 ROOT
