@<TRIPOS>MOLECULE
ILC
   39    41     1     0     0
SMALL
No Charge or Current Charge


@<TRIPOS>ATOM
      1 C1           6.9030    -0.4420    -0.6810 ca         1 ILC      -0.210000
      2 C2           6.2630    -0.3640     0.5730 ca         1 ILC       0.135100
      3 C8           4.8660    -0.2390     0.6330 ca         1 ILC      -0.139000
      4 C9           4.0760    -0.1900    -0.5420 cp         1 ILC       0.030000
      5 C10          2.5850    -0.0580    -0.4690 cp         1 ILC      -0.076000
      6 C11          4.7440    -0.2710    -1.7890 ca         1 ILC      -0.143000
      7 C12          6.1410    -0.3950    -1.8590 ca         1 ILC      -0.080000
      8 C13          1.7430    -0.6940    -1.4150 ca         1 ILC      -0.090000
      9 C14          0.3440    -0.5720    -1.3510 ca         1 ILC      -0.130000
     10 C16         -0.2610     0.2000    -0.3350 ca         1 ILC      -0.010000
     11 C20          1.9650     0.7050     0.5510 ca         1 ILC      -0.117000
     12 C21         -2.7080     0.1520    -1.1040 c          1 ILC       0.671700
     13 C22         -4.1000     0.4400    -0.5990 cc         1 ILC      -0.213600
     14 C24         -5.1590     0.5290    -1.5540 cc         1 ILC      -0.101000
     15 C27         -4.5770     0.6490     0.7070 cd         1 ILC      -0.197600
     16 O3           6.9580    -0.4090     1.7650 os         1 ILC      -0.342100
     17 C4           8.3900    -0.5360     1.8130 c3         1 ILC       0.152900
     18 N17         -1.6710     0.3520    -0.2120 ns         1 ILC      -0.111000
     19 C18          0.5680     0.8270     0.6160 ca         1 ILC       0.120000
     20 F19          0.0210     1.5760     1.6020 f          1 ILC      -0.167000
     21 O23         -2.5040    -0.1620    -2.2740 o          1 ILC      -0.617100
     22 C25         -6.3850     0.8390    -1.0390 cd         1 ILC      -0.326000
     23 S26         -6.2800     1.1580     0.6910 ss         1 ILC       0.253000
     24 C28         -3.9410     0.3820     2.0380 c          1 ILC       0.727600
     25 O29         -2.8680    -0.1900     2.1050 o          1 ILC      -0.697500
     26 O30         -4.5670     0.6960     3.0390 o          1 ILC      -0.697500
     27 H1           7.9820    -0.5380    -0.7620 ha         1 ILC       0.107000
     28 H8           4.3890    -0.1950     1.6080 ha         1 ILC       0.134000
     29 H11          4.1750    -0.2230    -2.7140 ha         1 ILC       0.117000
     30 H12          6.6330    -0.4510    -2.8280 ha         1 ILC       0.102000
     31 H13          2.1790    -1.3060    -2.2020 ha         1 ILC       0.107000
     32 H14         -0.2540    -1.0990    -2.0890 ha         1 ILC       0.145000
     33 H20          2.5690     1.2210     1.2920 ha         1 ILC       0.124000
     34 H24         -4.9970     0.3630    -2.6160 ha         1 ILC       0.119000
     35 H41          8.7350    -0.5520     2.8550 h1         1 ILC       0.034700
     36 H42          8.7150    -1.4680     1.3340 h1         1 ILC       0.034700
     37 H43          8.8740     0.3090     1.3070 h1         1 ILC       0.034700
     38 HN17        -1.9750     0.6270     0.7140 hn         1 ILC       0.190000
     39 H25         -7.3250     0.9580    -1.5630 h4         1 ILC       0.126000
@<TRIPOS>BOND
     1     1     2 ar  
     2     1     7 ar  
     3     1    27 1   
     4     2     3 ar  
     5     2    16 1   
     6     3     4 ar  
     7     3    28 1   
     8     4     5 1   
     9     4     6 ar  
    10     5     8 ar  
    11     5    11 ar  
    12     6     7 ar  
    13     6    29 1   
    14     7    30 1   
    15     8     9 ar  
    16     8    31 1   
    17     9    10 ar  
    18     9    32 1   
    19    10    18 1   
    20    10    19 ar  
    21    11    19 ar  
    22    11    33 1   
    23    12    13 1   
    24    12    18 1   
    25    12    21 2   
    26    13    14 1   
    27    13    15 2   
    28    14    22 2   
    29    14    34 1   
    30    15    23 1   
    31    15    24 1   
    32    16    17 1   
    33    17    35 1   
    34    17    36 1   
    35    17    37 1   
    36    18    38 1   
    37    19    20 1   
    38    22    23 1   
    39    22    39 1   
    40    24    25 1   
    41    24    26 1   
@<TRIPOS>SUBSTRUCTURE
     1 ILC         1 TEMP              0 ****  ****    0 ROOT
