@<TRIPOS>MOLECULE
ILC
   39    41     1     0     0
SMALL
bcc


@<TRIPOS>ATOM
      1 C1           6.8250    -0.4380    -0.6520 ca         1 ILC      -0.228000
      2 C2           6.1580    -0.4060     0.5700 ca         1 ILC       0.135100
      3 C8           4.7720    -0.2520     0.5980 ca         1 ILC      -0.157000
      4 C9           4.0410    -0.1280    -0.5780 cp         1 ILC       0.030000
      5 C10          2.5750     0.0380    -0.5330 cp         1 ILC      -0.076000
      6 C11          4.7160    -0.1590    -1.8020 ca         1 ILC      -0.161000
      7 C12          6.0900    -0.3140    -1.8260 ca         1 ILC      -0.098000
      8 C13          1.7520    -0.5150    -1.5110 ca         1 ILC      -0.108000
      9 C14          0.3750    -0.3630    -1.4800 ca         1 ILC      -0.148000
     10 C16         -0.2400     0.3500    -0.4510 ca         1 ILC       0.082600
     11 C20          1.9670     0.7610     0.4940 ca         1 ILC      -0.135000
     12 C21         -2.6120    -0.1740    -0.8490 c          1 ILC       0.738700
     13 C22         -3.9870     0.2660    -0.4850 cc         1 ILC      -0.213600
     14 C24         -4.9590     0.4400    -1.5130 cc         1 ILC      -0.119000
     15 C27         -4.4960     0.4980     0.7680 cd         1 ILC      -0.052700
     16 O3           6.7630    -0.5240     1.7680 os         1 ILC      -0.318900
     17 C4           8.1660    -0.6940     1.8020 c3         1 ILC       0.129700
     18 N17         -1.6080     0.5850    -0.3450 ns         1 ILC      -0.437100
     19 C18          0.6010     0.8980     0.5170 ca         1 ILC       0.084900
     20 F19          0.0410     1.6150     1.5070 f          1 ILC      -0.131900
     21 O23         -2.4450    -1.1040    -1.6180 o          1 ILC      -0.617100
     22 C25         -6.1710     0.8200    -1.0260 cd         1 ILC      -0.199100
     23 S26         -6.1510     0.9460     0.6790 ss         1 ILC      -0.036800
     24 C28         -3.9030     0.3590     2.1510 c          1 ILC       0.938200
     25 O29         -2.7580    -0.1140     2.2270 o          1 ILC      -0.802800
     26 O30         -4.6510     0.7310     3.0740 o          1 ILC      -0.802800
     27 H1           7.8980    -0.5550    -0.7110 ha         1 ILC       0.125000
     28 H8           4.2700    -0.2510     1.5590 ha         1 ILC       0.152000
     29 H11          4.1720    -0.0370    -2.7300 ha         1 ILC       0.135000
     30 H12          6.6120    -0.3310    -2.7740 ha         1 ILC       0.120000
     31 H13          2.1840    -1.0940    -2.3170 ha         1 ILC       0.125000
     32 H14         -0.2160    -0.8060    -2.2650 ha         1 ILC       0.163000
     33 H20          2.5520     1.2340     1.2730 ha         1 ILC       0.142000
     34 H24         -4.7520     0.3050    -2.5660 ha         1 ILC       0.137000
     35 H41          8.4410    -0.7790     2.8500 h1         1 ILC       0.034700
     36 H42          8.4810    -1.6010     1.2800 h1         1 ILC       0.034700
     37 H43          8.6930     0.1610     1.3700 h1         1 ILC       0.034700
     38 HN17        -1.8830     1.2330     0.3780 hn         1 ILC       0.356500
     39 H25         -7.0670     1.0300    -1.5900 h4         1 ILC       0.144000
@<TRIPOS>BOND
     1     1     2 ar  
     2     1     7 ar  
     3     1    27 1   
     4     2     3 ar  
     5     2    16 1   
     6     3     4 ar  
     7     3    28 1   
     8     4     5 1   
     9     4     6 ar  
    10     5     8 ar  
    11     5    11 ar  
    12     6     7 ar  
    13     6    29 1   
    14     7    30 1   
    15     8     9 ar  
    16     8    31 1   
    17     9    10 ar  
    18     9    32 1   
    19    10    18 1   
    20    10    19 ar  
    21    11    19 ar  
    22    11    33 1   
    23    12    13 1   
    24    12    18 1   
    25    12    21 2   
    26    13    14 1   
    27    13    15 2   
    28    14    22 2   
    29    14    34 1   
    30    15    23 1   
    31    15    24 1   
    32    16    17 1   
    33    17    35 1   
    34    17    36 1   
    35    17    37 1   
    36    18    38 1   
    37    19    20 1   
    38    22    23 1   
    39    22    39 1   
    40    24    25 1   
    41    24    26 1   
@<TRIPOS>SUBSTRUCTURE
     1 ILC         1 TEMP              0 ****  ****    0 ROOT
