@<TRIPOS>MOLECULE
ILD
   79    82     1     0     0
SMALL
bcc


@<TRIPOS>ATOM
      1 C1          -6.3160    -0.6580    -0.5750 ca         1 ILD      -0.096300
      2 C2          -6.8550    -0.9590    -1.8220 ca         1 ILD      -0.106500
      3 C3          -8.2260    -0.9100    -2.0280 ca         1 ILD      -0.129000
      4 C4          -9.0730    -0.5720    -0.9810 ca         1 ILD      -0.116000
      5 C5          -8.5400    -0.2830     0.2680 ca         1 ILD      -0.129000
      6 C6          -7.1670    -0.3220     0.4720 ca         1 ILD      -0.106500
      7 C7          -4.9080     1.9120    -0.4190 c3         1 ILD      -0.104100
      8 C8          -4.1080     0.6550    -0.7160 c5         1 ILD       0.080700
      9 C9          -4.8260    -0.6730    -0.4270 c5         1 ILD       0.183400
     10 O10         -4.4430    -0.9650     0.9210 os         1 ILD      -0.385900
     11 C11         -3.2980    -0.3590     1.2270 c          1 ILD       0.854600
     12 N12         -2.9680     0.5080     0.1950 n          1 ILD      -0.560400
     13 C13         -1.8110     1.2450    -0.0030 c          1 ILD       0.703100
     14 C14         -0.6170     1.0850     0.9110 c3         1 ILD      -0.133700
     15 C15          0.5750     0.5920     0.0760 c5         1 ILD       0.155100
     16 C16          0.4450    -0.8380    -0.4580 c5         1 ILD      -0.102700
     17 C17          1.9080    -1.2700    -0.5390 c5         1 ILD      -0.095400
     18 C18          2.6240    -0.4510     0.5500 c5         1 ILD       0.171800
     19 C19          3.8460     0.2660    -0.0340 c5         1 ILD       0.135100
     20 C20          4.5770     1.2700     0.8430 c5         1 ILD      -0.102400
     21 C21          5.9230     1.3470     0.1280 c5         1 ILD      -0.097400
     22 C22          6.1120    -0.0670    -0.4680 c5         1 ILD       0.166800
     23 C23          6.4730     0.0230    -1.9620 c3         1 ILD       0.139100
     24 C24          6.6040    -1.3230    -2.6590 c3         1 ILD      -0.124100
     25 O25         -2.7190    -0.5720     2.2540 o          1 ILD      -0.578500
     26 O26         -1.7740     2.0120    -0.9400 o          1 ILD      -0.568100
     27 C27         -0.3490     2.4400     1.5830 c3         1 ILD      -0.063400
     28 C28         -1.4980     2.9020     2.4700 c3         1 ILD      -0.097100
     29 O29          1.7020     0.5690     0.9260 os         1 ILD      -0.414600
     30 C30         -0.2860    -0.9930    -1.7830 c3         1 ILD      -0.081100
     31 C31          2.9630    -1.2790     1.7890 c3         1 ILD      -0.071400
     32 C32          1.7650    -1.9520     2.4440 c3         1 ILD      -0.089100
     33 O33          4.8300    -0.6880    -0.3760 os         1 ILD      -0.418600
     34 C34          7.1170    -0.9230     0.3070 c3         1 ILD      -0.069400
     35 C35          6.9250    -0.9520     1.8170 c3         1 ILD      -0.086100
     36 O36          7.6730     0.7670    -2.0540 oh         1 ILD      -0.602800
     37 H2          -6.2000    -1.2360    -2.6400 ha         1 ILD       0.137500
     38 H3          -8.6320    -1.1460    -3.0030 ha         1 ILD       0.135500
     39 H4         -10.1440    -0.5400    -1.1350 ha         1 ILD       0.134000
     40 H5          -9.1940    -0.0250     1.0910 ha         1 ILD       0.135500
     41 H6          -6.7730    -0.0890     1.4530 ha         1 ILD       0.137500
     42 H7          -5.3000     1.9170     0.5980 hc         1 ILD       0.054367
     43 H7A         -4.2830     2.7940    -0.5480 hc         1 ILD       0.054367
     44 H7B         -5.7480     1.9950    -1.1070 hc         1 ILD       0.054367
     45 H9          -4.4030    -1.4530    -1.0680 h1         1 ILD       0.070700
     46 H14         -0.8020     0.3420     1.6830 hc         1 ILD       0.099700
     47 H15          0.7430     1.2910    -0.7580 h1         1 ILD       0.057700
     48 H16         -0.0670    -1.4410     0.3020 hc         1 ILD       0.064700
     49 H17          2.0300    -2.3460    -0.4050 hc         1 ILD       0.059700
     50 H17A         2.3070    -1.0290    -1.5290 hc         1 ILD       0.059700
     51 H19          3.5050     0.7960    -0.9410 h1         1 ILD       0.035700
     52 H20          4.0670     2.2310     0.8900 hc         1 ILD       0.060700
     53 H20A         4.6930     0.9040     1.8650 hc         1 ILD       0.060700
     54 H21          5.8750     2.0950    -0.6670 hc         1 ILD       0.058700
     55 H21A         6.7420     1.6360     0.7870 hc         1 ILD       0.058700
     56 H23          5.6520     0.5750    -2.4480 h1         1 ILD       0.029700
     57 H24          7.4590    -1.8890    -2.2890 hc         1 ILD       0.043367
     58 H24A         5.7070    -1.9280    -2.5260 hc         1 ILD       0.043367
     59 H24B         6.7430    -1.1800    -3.7320 hc         1 ILD       0.043367
     60 H27          0.5520     2.3450     2.1890 hc         1 ILD       0.059700
     61 H27A        -0.1390     3.1910     0.8180 hc         1 ILD       0.059700
     62 H28         -1.2560     3.8520     2.9470 hc         1 ILD       0.036367
     63 H28A        -2.4240     3.0530     1.9110 hc         1 ILD       0.036367
     64 H28B        -1.7040     2.1780     3.2590 hc         1 ILD       0.036367
     65 H30          0.1440    -0.3450    -2.5490 hc         1 ILD       0.036700
     66 H30A        -0.2050    -2.0220    -2.1380 hc         1 ILD       0.036700
     67 H30B        -1.3500    -0.7700    -1.7110 hc         1 ILD       0.036700
     68 H31          3.6990    -2.0360     1.5110 hc         1 ILD       0.052700
     69 H31A         3.4540    -0.6390     2.5290 hc         1 ILD       0.052700
     70 H32          1.2840    -2.6720     1.7810 hc         1 ILD       0.035033
     71 H32A         2.0790    -2.4960     3.3360 hc         1 ILD       0.035033
     72 H32B         1.0140    -1.2240     2.7520 hc         1 ILD       0.035033
     73 H34          7.0660    -1.9490    -0.0690 hc         1 ILD       0.052200
     74 H34A         8.1240    -0.5670     0.0800 hc         1 ILD       0.052200
     75 H35          7.0620     0.0310     2.2700 hc         1 ILD       0.032367
     76 H35A         5.9380    -1.3160     2.0990 hc         1 ILD       0.032367
     77 H35B         7.6590    -1.6180     2.2720 hc         1 ILD       0.032367
     78 HO36         7.9230     0.8220    -2.9810 ho         1 ILD       0.404000
     79 H8          -3.7600     0.6650    -1.7480 h1         1 ILD       0.090700
@<TRIPOS>BOND
     1     1     2 ar  
     2     1     6 ar  
     3     1     9 1   
     4     2     3 ar  
     5     2    37 1   
     6     3     4 ar  
     7     3    38 1   
     8     4     5 ar  
     9     4    39 1   
    10     5     6 ar  
    11     5    40 1   
    12     6    41 1   
    13     7     8 1   
    14     7    42 1   
    15     7    43 1   
    16     7    44 1   
    17     8     9 1   
    18     8    12 1   
    19     8    79 1   
    20     9    10 1   
    21     9    45 1   
    22    10    11 1   
    23    11    12 1   
    24    11    25 2   
    25    12    13 1   
    26    13    14 1   
    27    13    26 2   
    28    14    15 1   
    29    14    27 1   
    30    14    46 1   
    31    15    16 1   
    32    15    29 1   
    33    15    47 1   
    34    16    17 1   
    35    16    30 1   
    36    16    48 1   
    37    17    18 1   
    38    17    49 1   
    39    17    50 1   
    40    18    19 1   
    41    18    29 1   
    42    18    31 1   
    43    19    20 1   
    44    19    33 1   
    45    19    51 1   
    46    20    21 1   
    47    20    52 1   
    48    20    53 1   
    49    21    22 1   
    50    21    54 1   
    51    21    55 1   
    52    22    23 1   
    53    22    33 1   
    54    22    34 1   
    55    23    24 1   
    56    23    36 1   
    57    23    56 1   
    58    24    57 1   
    59    24    58 1   
    60    24    59 1   
    61    27    28 1   
    62    27    60 1   
    63    27    61 1   
    64    28    62 1   
    65    28    63 1   
    66    28    64 1   
    67    30    65 1   
    68    30    66 1   
    69    30    67 1   
    70    31    32 1   
    71    31    68 1   
    72    31    69 1   
    73    32    70 1   
    74    32    71 1   
    75    32    72 1   
    76    34    35 1   
    77    34    73 1   
    78    34    74 1   
    79    35    75 1   
    80    35    76 1   
    81    35    77 1   
    82    36    78 1   
@<TRIPOS>SUBSTRUCTURE
     1 ILD         1 TEMP              0 ****  ****    0 ROOT
