@<TRIPOS>MOLECULE
ILD
   79    82     1     0     0
SMALL
No Charge or Current Charge


@<TRIPOS>ATOM
      1 C1          -6.3950    -0.3120    -0.7850 ca         1 ILD      -0.096300
      2 C2          -6.7590    -0.6290    -2.1100 ca         1 ILD      -0.088500
      3 C3          -8.0650    -0.3900    -2.5720 ca         1 ILD      -0.111000
      4 C4          -9.0240     0.1700    -1.7130 ca         1 ILD      -0.098000
      5 C5          -8.6750     0.4890    -0.3910 ca         1 ILD      -0.111000
      6 C6          -7.3700     0.2490     0.0720 ca         1 ILD      -0.088500
      7 C7          -4.6310     1.9840    -0.8260 c3         1 ILD      -0.104100
      8 C8          -4.0010     0.5650    -0.7780 c5         1 ILD       0.080700
      9 C9          -4.9600    -0.5790    -0.3140 c5         1 ILD       0.206600
     10 O10         -4.8370    -0.5920     1.1200 os         1 ILD      -0.409100
     11 C11         -3.5970    -0.1390     1.4490 c          1 ILD       0.712100
     12 N12         -3.0220     0.4550     0.3260 n          1 ILD      -0.426400
     13 C13         -1.7110     0.9490     0.1330 c          1 ILD       0.636100
     14 C14         -0.5850     0.7600     1.1760 c3         1 ILD      -0.133700
     15 C15          0.6410     0.0750     0.5160 c5         1 ILD       0.178300
     16 C16          0.4760    -1.4120     0.0860 c5         1 ILD      -0.102700
     17 C17          1.9720    -1.7840    -0.1430 c5         1 ILD      -0.095400
     18 C18          2.7240    -0.9070     0.9310 c5         1 ILD       0.195000
     19 C19          3.7190     0.0110     0.0910 c5         1 ILD       0.158300
     20 C20          4.2880     1.1560     0.9660 c5         1 ILD      -0.102400
     21 C21          5.4760     1.5850     0.0610 c5         1 ILD      -0.097400
     22 C22          5.9370     0.2320    -0.6130 c5         1 ILD       0.190000
     23 C23          5.9520     0.3540    -2.1900 c3         1 ILD       0.162300
     24 C24          6.1780    -0.9660    -2.9640 c3         1 ILD      -0.124100
     25 O25         -3.1240    -0.2300     2.5680 o          1 ILD      -0.503000
     26 O26         -1.4450     1.5430    -0.9050 o          1 ILD      -0.568100
     27 C27         -0.2310     2.1320     1.8270 c3         1 ILD      -0.063400
     28 C28         -1.4190     2.8310     2.5220 c3         1 ILD      -0.097100
     29 O29          1.6970    -0.0470     1.4830 os         1 ILD      -0.461000
     30 C30         -0.4230    -1.7010    -1.1390 c3         1 ILD      -0.081100
     31 C31          3.3600    -1.7300     2.0960 c3         1 ILD      -0.071400
     32 C32          2.3730    -2.5750     2.9350 c3         1 ILD      -0.089100
     33 O33          4.9150    -0.7220    -0.2250 os         1 ILD      -0.465000
     34 C34          7.3020    -0.2990    -0.0630 c3         1 ILD      -0.069400
     35 C35          7.3690    -0.5470     1.4630 c3         1 ILD      -0.086100
     36 O36          6.9360     1.3060    -2.6310 oh         1 ILD      -0.725000
     37 H2          -6.0260    -1.0620    -2.7870 ha         1 ILD       0.119500
     38 H3          -8.3330    -0.6380    -3.5970 ha         1 ILD       0.117500
     39 H4         -10.0350     0.3560    -2.0710 ha         1 ILD       0.116000
     40 H5          -9.4160     0.9230     0.2760 ha         1 ILD       0.117500
     41 H6          -7.1190     0.5070     1.0980 ha         1 ILD       0.119500
     42 H7          -5.1140     2.2420     0.1240 hc         1 ILD       0.054367
     43 H7A         -3.8710     2.7480    -1.0270 hc         1 ILD       0.054367
     44 H7B         -5.3820     2.0620    -1.6210 hc         1 ILD       0.054367
     45 H9          -4.6020    -1.5470    -0.6900 h1         1 ILD       0.070700
     46 H14         -0.9050     0.1060     1.9830 hc         1 ILD       0.099700
     47 H15          0.9950     0.6960    -0.3190 h1         1 ILD       0.057700
     48 H16          0.0670    -1.9990     0.9180 hc         1 ILD       0.064700
     49 H17          2.1500    -2.8560    -0.0100 hc         1 ILD       0.059700
     50 H17A         2.2820    -1.5580    -1.1700 hc         1 ILD       0.059700
     51 H19          3.2690     0.4020    -0.8320 h1         1 ILD       0.035700
     52 H20          3.5680     1.9650     1.1280 hc         1 ILD       0.060700
     53 H20A         4.6410     0.8200     1.9450 hc         1 ILD       0.060700
     54 H21          5.1420     2.3120    -0.6880 hc         1 ILD       0.058700
     55 H21A         6.2740     2.0780     0.6270 hc         1 ILD       0.058700
     56 H23          4.9570     0.7170    -2.4830 h1         1 ILD       0.029700
     57 H24          7.1930    -1.3510    -2.8170 hc         1 ILD       0.043367
     58 H24A         5.4670    -1.7340    -2.6370 hc         1 ILD       0.043367
     59 H24B         6.0280    -0.8110    -4.0390 hc         1 ILD       0.043367
     60 H27          0.5620     1.9900     2.5720 hc         1 ILD       0.059700
     61 H27A         0.1790     2.8040     1.0620 hc         1 ILD       0.059700
     62 H28         -1.0890     3.7680     2.9850 hc         1 ILD       0.036367
     63 H28A        -2.2160     3.0700     1.8080 hc         1 ILD       0.036367
     64 H28B        -1.8380     2.1930     3.3100 hc         1 ILD       0.036367
     65 H30         -0.1690    -1.0500    -1.9840 hc         1 ILD       0.036700
     66 H30A        -0.3040    -2.7400    -1.4710 hc         1 ILD       0.036700
     67 H30B        -1.4840    -1.5600    -0.9050 hc         1 ILD       0.036700
     68 H31          4.1230    -2.4040     1.6900 hc         1 ILD       0.052700
     69 H31A         3.8850    -1.0640     2.7870 hc         1 ILD       0.052700
     70 H32          1.8720    -3.3310     2.3190 hc         1 ILD       0.035033
     71 H32A         2.9080    -3.0960     3.7380 hc         1 ILD       0.035033
     72 H32B         1.6060    -1.9400     3.3950 hc         1 ILD       0.035033
     73 H34          7.5570    -1.2450    -0.5540 hc         1 ILD       0.052200
     74 H34A         8.1010     0.4030    -0.3270 hc         1 ILD       0.052200
     75 H35          7.2130     0.3800     2.0250 hc         1 ILD       0.032367
     76 H35A         6.6110    -1.2750     1.7770 hc         1 ILD       0.032367
     77 H35B         8.3530    -0.9450     1.7380 hc         1 ILD       0.032367
     78 HO36         6.8350     1.3950    -3.6070 ho         1 ILD       0.503000
     79 H8          -3.5590     0.3280    -1.7560 h1         1 ILD       0.090700
@<TRIPOS>BOND
     1     1     2 ar  
     2     1     6 ar  
     3     1     9 1   
     4     2     3 ar  
     5     2    37 1   
     6     3     4 ar  
     7     3    38 1   
     8     4     5 ar  
     9     4    39 1   
    10     5     6 ar  
    11     5    40 1   
    12     6    41 1   
    13     7     8 1   
    14     7    42 1   
    15     7    43 1   
    16     7    44 1   
    17     8     9 1   
    18     8    12 1   
    19     8    79 1   
    20     9    10 1   
    21     9    45 1   
    22    10    11 1   
    23    11    12 1   
    24    11    25 2   
    25    12    13 1   
    26    13    14 1   
    27    13    26 2   
    28    14    15 1   
    29    14    27 1   
    30    14    46 1   
    31    15    16 1   
    32    15    29 1   
    33    15    47 1   
    34    16    17 1   
    35    16    30 1   
    36    16    48 1   
    37    17    18 1   
    38    17    49 1   
    39    17    50 1   
    40    18    19 1   
    41    18    29 1   
    42    18    31 1   
    43    19    20 1   
    44    19    33 1   
    45    19    51 1   
    46    20    21 1   
    47    20    52 1   
    48    20    53 1   
    49    21    22 1   
    50    21    54 1   
    51    21    55 1   
    52    22    23 1   
    53    22    33 1   
    54    22    34 1   
    55    23    24 1   
    56    23    36 1   
    57    23    56 1   
    58    24    57 1   
    59    24    58 1   
    60    24    59 1   
    61    27    28 1   
    62    27    60 1   
    63    27    61 1   
    64    28    62 1   
    65    28    63 1   
    66    28    64 1   
    67    30    65 1   
    68    30    66 1   
    69    30    67 1   
    70    31    32 1   
    71    31    68 1   
    72    31    69 1   
    73    32    70 1   
    74    32    71 1   
    75    32    72 1   
    76    34    35 1   
    77    34    73 1   
    78    34    74 1   
    79    35    75 1   
    80    35    76 1   
    81    35    77 1   
    82    36    78 1   
@<TRIPOS>SUBSTRUCTURE
     1 ILD         1 TEMP              0 ****  ****    0 ROOT
