@<TRIPOS>MOLECULE
ILF
   39    41     1     0     0
SMALL
No Charge or Current Charge


@<TRIPOS>ATOM
      1 C1          55.6810    48.3250    -0.5070 ca         1 ILF      -0.108000
      2 C2          55.4860    47.8950    -1.8300 ca         1 ILF       0.084100
      3 C8          54.5660    46.8530    -2.0910 ca         1 ILF      -0.098000
      4 C9          53.8380    46.2360    -1.0410 cp         1 ILF       0.000000
      5 C10         52.8660    45.1320    -1.3210 cp         1 ILF      -0.035000
      6 C11         54.0580    46.6950     0.2810 ca         1 ILF      -0.092000
      7 C12         54.9700    47.7290     0.5460 ca         1 ILF      -0.107000
      8 C13         51.6640    45.0090    -0.5820 ca         1 ILF      -0.156500
      9 C14         50.7490    43.9750    -0.8400 ca         1 ILF       0.180000
     10 C16         51.0110    43.0180    -1.8450 ca         1 ILF      -0.052000
     11 C20         53.1050    44.1800    -2.3420 ca         1 ILF      -0.156500
     12 C21         49.4130    41.1040    -1.3260 c          1 ILF       0.640700
     13 C22         48.4780    40.1120    -1.9790 cc         1 ILF      -0.182600
     14 C24         47.8970    39.1090    -1.1430 cc         1 ILF      -0.094000
     15 C27         48.0430    39.9730    -3.3120 cd         1 ILF      -0.221600
     16 O3          56.2210    48.5330    -2.8150 os         1 ILF      -0.404100
     17 C4          56.1440    48.2120    -4.2190 c3         1 ILF       0.513000
     18 F5          56.4970    46.9300    -4.4690 f          1 ILF      -0.111667
     19 F6          54.9020    48.4070    -4.7190 f          1 ILF      -0.111667
     20 F7          56.9810    48.9960    -4.9330 f          1 ILF      -0.111667
     21 F15         49.5870    43.9560    -0.1470 f          1 ILF      -0.159500
     22 N17         50.1100    41.9570    -2.1500 ns         1 ILF      -0.187000
     23 C18         52.1900    43.1480    -2.6010 ca         1 ILF       0.180000
     24 F19         52.4650    42.2590    -3.5840 f          1 ILF      -0.159500
     25 O23         49.6050    41.1070    -0.1130 o          1 ILF      -0.653100
     26 C25         47.0820    38.2150    -1.7750 cd         1 ILF      -0.328000
     27 S26         47.0380    38.5180    -3.5080 ss         1 ILF       0.262000
     28 C28         48.2090    40.8500    -4.5160 c          1 ILF       0.741600
     29 O29         48.7620    41.9310    -4.4270 o          1 ILF      -0.676500
     30 O30         47.7380    40.4550    -5.5710 o          1 ILF      -0.676500
     31 H1          56.3870    49.1250    -0.2990 ha         1 ILF       0.126000
     32 H8          54.3880    46.5150    -3.1060 ha         1 ILF       0.141000
     33 H11         53.5260    46.2360     1.1110 ha         1 ILF       0.127000
     34 H12         55.1280    48.0660     1.5690 ha         1 ILF       0.116000
     35 H13         51.4220    45.7380     0.1860 ha         1 ILF       0.125000
     36 H20         54.0160    44.2290    -2.9320 ha         1 ILF       0.125000
     37 H24         48.0920    39.0620    -0.0750 ha         1 ILF       0.133000
     38 HN17        49.9210    41.8310    -3.1360 hn         1 ILF       0.260000
     39 H25         46.5390    37.3800    -1.3500 h4         1 ILF       0.128000
@<TRIPOS>BOND
     1     1     2 ar  
     2     1     7 ar  
     3     1    31 1   
     4     2     3 ar  
     5     2    16 1   
     6     3     4 ar  
     7     3    32 1   
     8     4     5 1   
     9     4     6 ar  
    10     5     8 ar  
    11     5    11 ar  
    12     6     7 ar  
    13     6    33 1   
    14     7    34 1   
    15     8     9 ar  
    16     8    35 1   
    17     9    10 ar  
    18     9    21 1   
    19    10    22 1   
    20    10    23 ar  
    21    11    23 ar  
    22    11    36 1   
    23    12    13 1   
    24    12    22 1   
    25    12    25 2   
    26    13    14 1   
    27    13    15 2   
    28    14    26 2   
    29    14    37 1   
    30    15    27 1   
    31    15    28 1   
    32    16    17 1   
    33    17    18 1   
    34    17    19 1   
    35    17    20 1   
    36    22    38 1   
    37    23    24 1   
    38    26    27 1   
    39    26    39 1   
    40    28    29 1   
    41    28    30 1   
@<TRIPOS>SUBSTRUCTURE
     1 ILF         1 TEMP              0 ****  ****    0 ROOT
