@<TRIPOS>MOLECULE
ILF
   39    41     1     0     0
SMALL
abcg2


@<TRIPOS>ATOM
      1 C1          55.6150    48.1430    -0.6470 ca         1 ILF      -0.108000
      2 C2          55.2140    47.8970    -1.9490 ca         1 ILF       0.084100
      3 C8          54.2330    46.9710    -2.2480 ca         1 ILF      -0.098000
      4 C9          53.6350    46.2430    -1.2200 cp         1 ILF       0.000000
      5 C10         52.6160    45.2220    -1.5300 cp         1 ILF      -0.035000
      6 C11         54.0360    46.4820     0.0940 ca         1 ILF      -0.092000
      7 C12         55.0100    47.4270     0.3750 ca         1 ILF      -0.107000
      8 C13         51.5230    45.0260    -0.6860 ca         1 ILF      -0.156500
      9 C14         50.5990    44.0500    -0.9910 ca         1 ILF       0.180000
     10 C16         50.7090    43.2210    -2.1020 ca         1 ILF      -0.052000
     11 C20         52.7410    44.4340    -2.6720 ca         1 ILF      -0.156500
     12 C21         49.6440    41.1620    -1.5510 c          1 ILF       0.640700
     13 C22         48.6460    40.1250    -1.9470 cc         1 ILF      -0.182600
     14 C24         48.4320    39.0360    -1.0500 cc         1 ILF      -0.094000
     15 C27         47.8590    40.0260    -3.0780 cd         1 ILF      -0.221600
     16 O3          55.7770    48.6440    -2.9780 os         1 ILF      -0.404100
     17 C4          56.8190    48.1140    -3.6300 c3         1 ILF       0.513000
     18 F5          57.8120    47.7680    -2.8110 f          1 ILF      -0.111667
     19 F6          56.4950    47.0210    -4.3250 f          1 ILF      -0.111667
     20 F7          57.2710    49.0220    -4.4800 f          1 ILF      -0.111667
     21 F15         49.5330    43.9000    -0.2020 f          1 ILF      -0.159500
     22 N17         49.7860    42.2140    -2.3810 ns         1 ILF      -0.187000
     23 C18         51.8000    43.4600    -2.9290 ca         1 ILF       0.180000
     24 F19         51.9420    42.6940    -4.0140 f          1 ILF      -0.159500
     25 O23         50.2850    41.0300    -0.5180 o          1 ILF      -0.653100
     26 C25         47.5070    38.1500    -1.5000 cd         1 ILF      -0.328000
     27 S26         46.8810    38.6160    -3.0180 ss         1 ILF       0.262000
     28 C28         47.6600    40.8410    -4.3380 c          1 ILF       0.741600
     29 O29         48.3380    41.8870    -4.4910 o          1 ILF      -0.676500
     30 O30         46.8240    40.3850    -5.1250 o          1 ILF      -0.676500
     31 H1          56.3740    48.8840    -0.4330 ha         1 ILF       0.126000
     32 H8          53.9130    46.8380    -3.2740 ha         1 ILF       0.141000
     33 H11         53.5990    45.9140     0.9060 ha         1 ILF       0.127000
     34 H12         55.3120    47.5990     1.4000 ha         1 ILF       0.116000
     35 H13         51.3720    45.6450     0.1890 ha         1 ILF       0.125000
     36 H20         53.5850    44.5420    -3.3410 ha         1 ILF       0.125000
     37 H24         48.9520    38.9320    -0.1100 ha         1 ILF       0.133000
     38 HN17        49.2570    42.1920    -3.2950 hn         1 ILF       0.260000
     39 H25         47.1680    37.2490    -1.0110 h4         1 ILF       0.128000
@<TRIPOS>BOND
     1     1     2 ar  
     2     1     7 ar  
     3     1    31 1   
     4     2     3 ar  
     5     2    16 1   
     6     3     4 ar  
     7     3    32 1   
     8     4     5 1   
     9     4     6 ar  
    10     5     8 ar  
    11     5    11 ar  
    12     6     7 ar  
    13     6    33 1   
    14     7    34 1   
    15     8     9 ar  
    16     8    35 1   
    17     9    10 ar  
    18     9    21 1   
    19    10    22 1   
    20    10    23 ar  
    21    11    23 ar  
    22    11    36 1   
    23    12    13 1   
    24    12    22 1   
    25    12    25 2   
    26    13    14 1   
    27    13    15 2   
    28    14    26 2   
    29    14    37 1   
    30    15    27 1   
    31    15    28 1   
    32    16    17 1   
    33    17    18 1   
    34    17    19 1   
    35    17    20 1   
    36    22    38 1   
    37    23    24 1   
    38    26    27 1   
    39    26    39 1   
    40    28    29 1   
    41    28    30 1   
@<TRIPOS>SUBSTRUCTURE
     1 ILF         1 TEMP              0 ****  ****    0 ROOT
