@<TRIPOS>MOLECULE
ILG
   18    17     1     0     0
SMALL
bcc


@<TRIPOS>ATOM
      1 N            0.9040    -1.7840    -0.2940 nz         1 ILG      -0.821600
      2 CA           0.7370    -0.3120    -0.4610 c3         1 ILG      -0.032500
      3 C            2.0690     0.3610    -0.0190 c          1 ILG       0.928600
      4 O            3.0770    -0.3640    -0.1130 o          1 ILG      -0.761300
      5 CB          -0.5000     0.1870     0.2560 c3         1 ILG      -0.085400
      6 CG          -1.8000    -0.4260    -0.2700 c3         1 ILG      -0.221400
      7 CD          -2.9900     0.1870     0.4010 c          1 ILG       0.575900
      8 OE1         -3.9630     0.6160    -0.1690 o          1 ILG      -0.496100
      9 OXT          1.9950     1.5430     0.3330 o          1 ILG      -0.761300
     10 H            0.8490    -2.0680     0.6840 hn         1 ILG       0.438133
     11 H2           1.8450    -2.0310    -0.6130 hn         1 ILG       0.438133
     12 H3           0.2240    -2.3350    -0.8150 hn         1 ILG       0.438133
     13 HA           0.6280    -0.1590    -1.5380 hx         1 ILG       0.084700
     14 HB2         -0.4060     0.0110     1.3320 hc         1 ILG       0.088200
     15 HB3         -0.5250     1.2680     0.1210 hc         1 ILG       0.088200
     16 HG2         -1.8840    -0.3180    -1.3530 hc         1 ILG       0.054700
     17 HG3         -1.8410    -1.4980    -0.0400 hc         1 ILG       0.054700
     18 HD          -2.9230     0.2210     1.5040 h4         1 ILG      -0.009800
@<TRIPOS>BOND
     1     1     2 1   
     2     1    10 1   
     3     1    11 1   
     4     1    12 1   
     5     2     3 1   
     6     2     5 1   
     7     2    13 1   
     8     3     4 1   
     9     3     9 1   
    10     5     6 1   
    11     5    14 1   
    12     5    15 1   
    13     6     7 1   
    14     6    16 1   
    15     6    17 1   
    16     7     8 2   
    17     7    18 1   
@<TRIPOS>SUBSTRUCTURE
     1 ILG         1 TEMP              0 ****  ****    0 ROOT
