@<TRIPOS>MOLECULE
ILG
   18    17     1     0     0
SMALL
No Charge or Current Charge


@<TRIPOS>ATOM
      1 N            0.9060    -1.8480    -0.2460 nz         1 ILG      -0.821600
      2 CA           0.7770    -0.3330    -0.4670 c3         1 ILG      -0.032500
      3 C            2.0980     0.4660    -0.1070 c          1 ILG       0.928600
      4 O            3.1670    -0.0710    -0.3770 o          1 ILG      -0.761300
      5 CB          -0.4950     0.2060     0.2410 c3         1 ILG      -0.085400
      6 CG          -1.8060    -0.4810    -0.2270 c3         1 ILG      -0.221400
      7 CD          -3.0440     0.1840     0.3880 c          1 ILG       0.575900
      8 OE1         -3.5570     1.1960    -0.0740 o          1 ILG      -0.496100
      9 OXT          2.0170     1.5430     0.4720 o          1 ILG      -0.761300
     10 H            0.9700    -2.1020     0.7510 hn         1 ILG       0.438133
     11 H2           1.7630    -2.2240    -0.6820 hn         1 ILG       0.438133
     12 H3           0.1200    -2.3840    -0.6390 hn         1 ILG       0.438133
     13 HA           0.6520    -0.1750    -1.5400 hx         1 ILG       0.084700
     14 HB2         -0.3850     0.0970     1.3290 hc         1 ILG       0.088200
     15 HB3         -0.5770     1.2830     0.0420 hc         1 ILG       0.088200
     16 HG2         -1.8710    -0.4220    -1.3200 hc         1 ILG       0.054700
     17 HG3         -1.7820    -1.5250     0.1070 hc         1 ILG       0.054700
     18 HD          -3.4570    -0.3110     1.2940 h4         1 ILG      -0.009800
@<TRIPOS>BOND
     1     1     2 1   
     2     1    10 1   
     3     1    11 1   
     4     1    12 1   
     5     2     3 1   
     6     2     5 1   
     7     2    13 1   
     8     3     4 1   
     9     3     9 1   
    10     5     6 1   
    11     5    14 1   
    12     5    15 1   
    13     6     7 1   
    14     6    16 1   
    15     6    17 1   
    16     7     8 2   
    17     7    18 1   
@<TRIPOS>SUBSTRUCTURE
     1 ILG         1 TEMP              0 ****  ****    0 ROOT
