@<TRIPOS>MOLECULE
ILH
   41    43     1     0     0
SMALL
abcg2


@<TRIPOS>ATOM
      1 O1          47.5930    39.9470    -5.5350 o          1 ILH      -0.675500
      2 C1          48.2170    40.4610    -4.6010 c          1 ILH       0.721200
      3 O2          49.0100    41.4390    -4.7130 o          1 ILH      -0.675500
      4 C2          47.9960    39.8520    -3.2390 ce         1 ILH      -0.116400
      5 C3          48.5120    40.1140    -2.0050 cf         1 ILH      -0.177200
      6 C4          47.9380    39.1780    -1.0380 cf         1 ILH      -0.161000
      7 C5          47.0830    38.3590    -1.6640 c2         1 ILH      -0.280200
      8 C6          47.0410    38.7080    -3.1070 c5         1 ILH      -0.035000
      9 C7          49.5000    41.1150    -1.5160 c          1 ILH       0.630300
     10 O3          49.8680    41.0950    -0.3500 o          1 ILH      -0.646100
     11 N1          49.9480    42.0060    -2.4240 ns         1 ILH      -0.199000
     12 C8          50.8810    42.9780    -2.0900 ca         1 ILH       0.000000
     13 C9          52.0930    43.0530    -2.7650 ca         1 ILH       0.118000
     14 F1          52.3730    42.1530    -3.7060 f          1 ILH      -0.139500
     15 C10         53.0210    44.0320    -2.4700 ca         1 ILH       0.155000
     16 F2          54.1730    44.0460    -3.1400 f          1 ILH      -0.162500
     17 C11         52.7950    44.9720    -1.4770 cp         1 ILH      -0.135000
     18 C12         51.5840    44.8950    -0.8050 ca         1 ILH       0.155000
     19 F3          51.2990    45.7930     0.1380 f          1 ILH      -0.162500
     20 C13         50.6420    43.9330    -1.1080 ca         1 ILH       0.118000
     21 F4          49.4760    43.9460    -0.4690 f          1 ILH      -0.139500
     22 C14         53.7970    46.0080    -1.1510 cp         1 ILH      -0.002000
     23 C15         54.1810    46.9310    -2.1190 ca         1 ILH      -0.075000
     24 C16         55.1240    47.8910    -1.7960 ca         1 ILH       0.080100
     25 O4          55.4600    48.8450    -2.7490 os         1 ILH      -0.404100
     26 C17         56.4980    48.5850    -3.5540 c3         1 ILH       0.513000
     27 F5          56.3230    47.4810    -4.2820 f          1 ILH      -0.111333
     28 F6          56.6350    49.6120    -4.3770 f          1 ILH      -0.111333
     29 F7          57.6420    48.4280    -2.8850 f          1 ILH      -0.111333
     30 C18         55.6910    47.9640    -0.5360 ca         1 ILH      -0.103000
     31 C19         55.3020    47.0390     0.4220 ca         1 ILH      -0.110000
     32 C20         54.3640    46.0640     0.1190 ca         1 ILH      -0.074000
     33 H4          48.1820    39.1710     0.0140 ha         1 ILH       0.192000
     34 H5          46.5040    37.5660    -1.2120 ha         1 ILH       0.173000
     35 H61         46.0340    38.9870    -3.4350 hc         1 ILH       0.084700
     36 H62         47.3290    37.8650    -3.7450 hc         1 ILH       0.084700
     37 HN1         49.6320    41.8580    -3.4370 hn         1 ILH       0.265000
     38 H15         53.7300    46.9200    -3.1020 ha         1 ILH       0.143000
     39 H18         56.4120    48.7350    -0.2990 ha         1 ILH       0.126000
     40 H19         55.7370    47.0800     1.4110 ha         1 ILH       0.117000
     41 H20         54.0810    45.3400     0.8720 ha         1 ILH       0.130000
@<TRIPOS>BOND
     1     1     2 1   
     2     2     3 1   
     3     2     4 1   
     4     4     5 2   
     5     4     8 1   
     6     5     6 1   
     7     5     9 1   
     8     6     7 2   
     9     6    33 1   
    10     7     8 1   
    11     7    34 1   
    12     8    35 1   
    13     8    36 1   
    14     9    10 2   
    15     9    11 1   
    16    11    12 1   
    17    11    37 1   
    18    12    13 ar  
    19    12    20 ar  
    20    13    14 1   
    21    13    15 ar  
    22    15    16 1   
    23    15    17 ar  
    24    17    18 ar  
    25    17    22 1   
    26    18    19 1   
    27    18    20 ar  
    28    20    21 1   
    29    22    23 ar  
    30    22    32 ar  
    31    23    24 ar  
    32    23    38 1   
    33    24    25 1   
    34    24    30 ar  
    35    25    26 1   
    36    26    27 1   
    37    26    28 1   
    38    26    29 1   
    39    30    31 ar  
    40    30    39 1   
    41    31    32 ar  
    42    31    40 1   
    43    32    41 1   
@<TRIPOS>SUBSTRUCTURE
     1 ILH         1 TEMP              0 ****  ****    0 ROOT
