@<TRIPOS>MOLECULE
ILH
   41    43     1     0     0
SMALL
No Charge or Current Charge


@<TRIPOS>ATOM
      1 O1          48.0790    39.9260    -5.7040 o          1 ILH      -0.675500
      2 C1          48.5740    40.3930    -4.6870 c          1 ILH       0.721200
      3 O2          49.4050    41.2840    -4.7190 o          1 ILH      -0.675500
      4 C2          48.1310    39.8400    -3.3430 ce         1 ILH      -0.116400
      5 C3          48.4370    40.0830    -2.0200 cf         1 ILH      -0.177200
      6 C4          47.6480    39.2120    -1.1850 cf         1 ILH      -0.161000
      7 C5          46.8670    38.4370    -1.9420 c2         1 ILH      -0.280200
      8 C6          47.0580    38.7200    -3.4270 c5         1 ILH      -0.035000
      9 C7          49.4000    41.0530    -1.3640 c          1 ILH       0.630300
     10 O3          49.5050    41.1030    -0.1420 o          1 ILH      -0.646100
     11 N1          50.1750    41.8490    -2.1780 ns         1 ILH      -0.199000
     12 C8          51.0840    42.8920    -1.8530 ca         1 ILH       0.000000
     13 C9          52.3330    42.9360    -2.5030 ca         1 ILH       0.118000
     14 F1          52.6540    41.9760    -3.4030 f          1 ILH      -0.139500
     15 C10         53.2620    43.9540    -2.2130 ca         1 ILH       0.155000
     16 F2          54.4650    43.9390    -2.8350 f          1 ILH      -0.162500
     17 C11         52.9650    44.9720    -1.2690 cp         1 ILH      -0.135000
     18 C12         51.6940    44.9320    -0.6390 ca         1 ILH       0.155000
     19 F3          51.3430    45.9070     0.2330 f          1 ILH      -0.162500
     20 C13         50.7640    43.9120    -0.9280 ca         1 ILH       0.118000
     21 F4          49.5400    43.9570    -0.3510 f          1 ILH      -0.139500
     22 C14         53.9500    46.0550    -0.9600 cp         1 ILH      -0.002000
     23 C15         54.5450    46.8160    -1.9970 ca         1 ILH      -0.075000
     24 C16         55.4780    47.8400    -1.7080 ca         1 ILH       0.080100
     25 O4          56.0900    48.6130    -2.6800 os         1 ILH      -0.404100
     26 C17         55.8610    48.4650    -4.0960 c3         1 ILH       0.513000
     27 F5          54.5690    48.6860    -4.4290 f          1 ILH      -0.111333
     28 F6          56.6040    49.3520    -4.7940 f          1 ILH      -0.111333
     29 F7          56.2010    47.2320    -4.5410 f          1 ILH      -0.111333
     30 C18         55.8160    48.1040    -0.3710 ca         1 ILH      -0.103000
     31 C19         55.2360    47.3620     0.6700 ca         1 ILH      -0.110000
     32 C20         54.3110    46.3470     0.3770 ca         1 ILH      -0.074000
     33 H4          47.6940    39.1990    -0.0920 ha         1 ILH       0.192000
     34 H5          46.1800    37.6960    -1.5270 ha         1 ILH       0.173000
     35 H61         46.1310    39.0650    -3.9010 hc         1 ILH       0.084700
     36 H62         47.4180    37.8370    -3.9700 hc         1 ILH       0.084700
     37 HN1         50.0670    41.6680    -3.1680 hn         1 ILH       0.265000
     38 H15         54.2570    46.5950    -3.0190 ha         1 ILH       0.143000
     39 H18         56.5320    48.8890    -0.1420 ha         1 ILH       0.126000
     40 H19         55.5040    47.5720     1.7040 ha         1 ILH       0.117000
     41 H20         53.8740    45.7730     1.1920 ha         1 ILH       0.130000
@<TRIPOS>BOND
     1     1     2 1   
     2     2     3 1   
     3     2     4 1   
     4     4     5 2   
     5     4     8 1   
     6     5     6 1   
     7     5     9 1   
     8     6     7 2   
     9     6    33 1   
    10     7     8 1   
    11     7    34 1   
    12     8    35 1   
    13     8    36 1   
    14     9    10 2   
    15     9    11 1   
    16    11    12 1   
    17    11    37 1   
    18    12    13 ar  
    19    12    20 ar  
    20    13    14 1   
    21    13    15 ar  
    22    15    16 1   
    23    15    17 ar  
    24    17    18 ar  
    25    17    22 1   
    26    18    19 1   
    27    18    20 ar  
    28    20    21 1   
    29    22    23 ar  
    30    22    32 ar  
    31    23    24 ar  
    32    23    38 1   
    33    24    25 1   
    34    24    30 ar  
    35    25    26 1   
    36    26    27 1   
    37    26    28 1   
    38    26    29 1   
    39    30    31 ar  
    40    30    39 1   
    41    31    32 ar  
    42    31    40 1   
    43    32    41 1   
@<TRIPOS>SUBSTRUCTURE
     1 ILH         1 TEMP              0 ****  ****    0 ROOT
