@<TRIPOS>MOLECULE
ILI
   70    73     1     0     0
SMALL
No Charge or Current Charge


@<TRIPOS>ATOM
      1 N3          -7.3130     0.4850     0.6440 nb         1 ILI      -0.602000
      2 C4          -6.4990    -0.3100    -0.1220 ca         1 ILI       0.154900
      3 C5          -6.6830    -0.4320    -1.5180 ca         1 ILI      -0.072000
      4 C6          -7.7280     0.2700    -2.1430 ca         1 ILI      -0.090000
      5 C13         -0.7430    -1.1730     1.2920 c3         1 ILI       0.153900
      6 C15         -2.5770     0.2500     2.4330 c2         1 ILI      -0.208200
      7 C20          1.3400    -0.4990     0.0500 c          1 ILI       0.586100
      8 C22          2.2520     0.6980    -0.3510 c3         1 ILI       0.033700
      9 C26          0.4200     3.2340    -1.0140 c3         1 ILI      -0.090100
     10 C1          -8.5590     1.0770    -1.3490 ca         1 ILI      -0.117000
     11 C2          -8.3170     1.1570     0.0330 ca         1 ILI       0.320900
     12 S7          -5.1060    -1.2300     0.6660 sy         1 ILI       1.120200
     13 O8          -5.2220    -1.2330     2.1310 o          1 ILI      -0.531000
     14 O9          -4.8970    -2.5000    -0.0460 o          1 ILI      -0.531000
     15 N10         -3.7310    -0.2750     0.2730 n3         1 ILI      -0.770500
     16 C11         -2.6250    -0.8970    -0.5170 c3         1 ILI       0.188800
     17 C12         -1.6370    -1.8590     0.2170 c3         1 ILI       0.141300
     18 C14         -1.4950    -0.5540     2.4540 c2         1 ILI      -0.207200
     19 C16         -3.3710     0.7750     1.2490 c3         1 ILI       0.269700
     20 O17         -2.3230    -2.9940     0.7840 oh         1 ILI      -0.657000
     21 C18         -2.6890     1.9970     0.6060 c3         1 ILI      -0.091100
     22 N19          0.1870    -0.1820     0.7410 ns         1 ILI      -0.504900
     23 O21          1.6400    -1.6610    -0.1950 o          1 ILI      -0.599100
     24 C23          1.9090     1.2650    -1.7590 c3         1 ILI      -0.087400
     25 C25          0.2400     2.3160    -3.3780 c3         1 ILI      -0.090100
     26 N27          3.6620     0.2520    -0.3360 ns         1 ILI      -0.487900
     27 O29          4.6580     2.2820    -0.0340 o          1 ILI      -0.599100
     28 C30          6.0470     0.3370    -0.2400 cc         1 ILI      -0.063100
     29 C31          7.3080     0.8920    -0.1210 cd         1 ILI      -0.146200
     30 C32          8.2540    -0.1710    -0.2260 ca         1 ILI      -0.132800
     31 C33          7.5000    -1.3020    -0.4020 ca         1 ILI       0.077100
     32 O34          6.1420    -1.0490    -0.4180 os         1 ILI      -0.175200
     33 C35          9.6530    -0.1930    -0.1780 ca         1 ILI      -0.049000
     34 C36         10.2850    -1.4470    -0.3190 ca         1 ILI      -0.134000
     35 C37          9.5160    -2.6240    -0.5020 ca         1 ILI      -0.081000
     36 C38          8.1050    -2.5570    -0.5440 ca         1 ILI      -0.109000
     37 H5          -6.0190    -1.0600    -2.1080 ha         1 ILI       0.150000
     38 H6          -7.8890     0.1910    -3.2170 ha         1 ILI       0.125000
     39 H13         -0.1220    -1.9770     1.7140 h1         1 ILI       0.091700
     40 H15         -2.9880     0.5940     3.3830 ha         1 ILI       0.182000
     41 H22          2.1340     1.4800     0.4090 h1         1 ILI       0.087700
     42 H24         -0.2450     1.2650    -1.5870 hc         1 ILI       0.047700
     43 H261         0.5100     2.9890     0.0500 hc         1 ILI       0.034867
     44 H262         1.2040     3.9580    -1.2670 hc         1 ILI       0.034867
     45 H263        -0.5520     3.7210    -1.1590 hc         1 ILI       0.034867
     46 H1          -9.3780     1.6380    -1.7910 ha         1 ILI       0.127000
     47 H2          -8.9450     1.7770     0.6710 h4         1 ILI       0.026100
     48 H111        -3.0470    -1.4440    -1.3710 h1         1 ILI       0.065700
     49 H112        -2.0210    -0.1070    -0.9770 h1         1 ILI       0.065700
     50 H12         -0.9550    -2.2310    -0.5590 h1         1 ILI       0.053700
     51 H14         -1.0680    -0.8310     3.4190 ha         1 ILI       0.182000
     52 H16         -4.3070     1.1840     1.6590 h1         1 ILI       0.085700
     53 HO17        -3.2620    -2.9270     0.4810 ho         1 ILI       0.465000
     54 H181        -1.6860     1.7520     0.2530 hc         1 ILI       0.041033
     55 H182        -3.2780     2.3620    -0.2440 hc         1 ILI       0.041033
     56 H183        -2.6010     2.8100     1.3350 hc         1 ILI       0.041033
     57 HN19         0.0190     0.7940     0.9440 hn         1 ILI       0.319500
     58 H231         1.9650     0.4410    -2.4830 hc         1 ILI       0.058700
     59 H232         2.6880     1.9800    -2.0540 hc         1 ILI       0.058700
     60 H251         0.9820     3.0240    -3.7680 hc         1 ILI       0.034867
     61 H252         0.2640     1.4140    -4.0010 hc         1 ILI       0.034867
     62 H253        -0.7530     2.7690    -3.4810 hc         1 ILI       0.034867
     63 HN27         3.8570    -0.7380    -0.4470 hn         1 ILI       0.346500
     64 H31          7.5260     1.9480     0.0250 ha         1 ILI       0.230000
     65 H35         10.2290     0.7190    -0.0370 ha         1 ILI       0.123000
     66 H36         11.3710    -1.5100    -0.2880 ha         1 ILI       0.118000
     67 H37         10.0150    -3.5850    -0.6090 ha         1 ILI       0.118000
     68 H38          7.5040    -3.4530    -0.6840 ha         1 ILI       0.134000
     69 C24          0.5330     1.9700    -1.9010 c3         1 ILI      -0.060700
     70 C28          4.7580     1.0720    -0.1920 c          1 ILI       0.649300
@<TRIPOS>BOND
     1     1     2 ar  
     2     1    11 ar  
     3     2     3 ar  
     4     2    12 1   
     5     3     4 ar  
     6     3    37 1   
     7     4    10 ar  
     8     4    38 1   
     9     5    17 1   
    10     5    18 1   
    11     5    22 1   
    12     5    39 1   
    13     6    18 2   
    14     6    19 1   
    15     6    40 1   
    16     7     8 1   
    17     7    22 1   
    18     7    23 2   
    19     8    24 1   
    20     8    26 1   
    21     8    41 1   
    22     9    43 1   
    23     9    44 1   
    24     9    45 1   
    25     9    69 1   
    26    10    11 ar  
    27    10    46 1   
    28    11    47 1   
    29    12    13 2   
    30    12    14 2   
    31    12    15 1   
    32    15    16 1   
    33    15    19 1   
    34    16    17 1   
    35    16    48 1   
    36    16    49 1   
    37    17    20 1   
    38    17    50 1   
    39    18    51 1   
    40    19    21 1   
    41    19    52 1   
    42    20    53 1   
    43    21    54 1   
    44    21    55 1   
    45    21    56 1   
    46    22    57 1   
    47    24    58 1   
    48    24    59 1   
    49    24    69 1   
    50    25    60 1   
    51    25    61 1   
    52    25    62 1   
    53    25    69 1   
    54    26    63 1   
    55    26    70 1   
    56    27    70 2   
    57    28    29 2   
    58    28    32 1   
    59    28    70 1   
    60    29    30 1   
    61    29    64 1   
    62    30    31 ar  
    63    30    33 ar  
    64    31    32 1   
    65    31    36 ar  
    66    33    34 ar  
    67    33    65 1   
    68    34    35 ar  
    69    34    66 1   
    70    35    36 ar  
    71    35    67 1   
    72    36    68 1   
    73    42    69 1   
@<TRIPOS>SUBSTRUCTURE
     1 ILI         1 TEMP              0 ****  ****    0 ROOT
