@<TRIPOS>MOLECULE
ILI
   70    73     1     0     0
SMALL
abcg2


@<TRIPOS>ATOM
      1 N3          -6.3880     1.0230     1.3570 nb         1 ILI      -0.602000
      2 C4          -6.2060     0.3050     0.2660 ca         1 ILI       0.154900
      3 C5          -6.8270     0.5360    -0.9490 ca         1 ILI      -0.072000
      4 C6          -7.7090     1.6060    -1.0100 ca         1 ILI      -0.090000
      5 C13         -0.6910    -1.5720     0.6690 c3         1 ILI       0.153900
      6 C15         -2.1320    -0.3220     2.3810 c2         1 ILI      -0.208200
      7 C20          1.2990    -0.8400    -0.6010 c          1 ILI       0.586100
      8 C22          2.1240     0.3730    -1.0220 c3         1 ILI       0.033700
      9 C26         -0.0800     2.1630    -2.2840 c3         1 ILI      -0.090100
     10 C1          -7.9130     2.3770     0.1230 ca         1 ILI      -0.117000
     11 C2          -7.2260     2.0480     1.2840 ca         1 ILI       0.320900
     12 S7          -5.0290    -1.0380     0.4320 sy         1 ILI       1.120200
     13 O8          -5.2220    -1.6130     1.7510 o          1 ILI      -0.531000
     14 O9          -5.1800    -1.8730    -0.7520 o          1 ILI      -0.531000
     15 N10         -3.5800    -0.2680     0.3370 n3         1 ILI      -0.770500
     16 C11         -2.6440    -0.6300    -0.7100 c3         1 ILI       0.188800
     17 C12         -1.7770    -1.8420    -0.3760 c3         1 ILI       0.141300
     18 C14         -1.1550    -1.1560     2.0390 c2         1 ILI      -0.207200
     19 C16         -3.1180     0.4360     1.5320 c3         1 ILI       0.269700
     20 O17         -2.5300    -2.9200     0.1120 oh         1 ILI      -0.657000
     21 C18         -2.5930     1.8300     1.1880 c3         1 ILI      -0.091100
     22 N19          0.2460    -0.5680     0.1870 ns         1 ILI      -0.504900
     23 O21          1.5830    -1.9600    -0.9940 o          1 ILI      -0.599100
     24 C23          1.9320     0.6380    -2.5180 c3         1 ILI      -0.087400
     25 C25          0.4200     1.0390    -4.4650 c3         1 ILI      -0.090100
     26 N27          3.5120     0.1170    -0.7150 ns         1 ILI      -0.487900
     27 O29          3.8480     1.9500     0.5840 o          1 ILI      -0.599100
     28 C30          5.6630     0.5250     0.2430 cc         1 ILI      -0.063100
     29 C31          6.6380     1.1540     0.9370 cd         1 ILI      -0.146200
     30 C32          7.8080     0.3420     0.7920 ca         1 ILI      -0.132800
     31 C33          7.4170    -0.7380    -0.0040 ca         1 ILI       0.077100
     32 O34          6.1130    -0.6220    -0.3340 os         1 ILI      -0.175200
     33 C35          9.1280     0.4160     1.2430 ca         1 ILI      -0.049000
     34 C36          9.9980    -0.5940     0.8790 ca         1 ILI      -0.134000
     35 C37          9.5740    -1.6660     0.0790 ca         1 ILI      -0.081000
     36 C38          8.2710    -1.7600    -0.3800 ca         1 ILI      -0.109000
     37 H5          -6.6420    -0.0860    -1.8120 ha         1 ILI       0.150000
     38 H6          -8.2290     1.8290    -1.9320 ha         1 ILI       0.125000
     39 H13         -0.1330    -2.5050     0.7770 h1         1 ILI       0.091700
     40 H15         -2.2240    -0.0980     3.4390 ha         1 ILI       0.182000
     41 H22          1.8260     1.2540    -0.4530 h1         1 ILI       0.087700
     42 H24         -0.1340     0.0560    -2.6620 hc         1 ILI       0.047700
     43 H261        -0.0800     2.1010    -1.1950 hc         1 ILI       0.034867
     44 H262         0.5020     3.0470    -2.5580 hc         1 ILI       0.034867
     45 H263        -1.1110     2.3350    -2.5960 hc         1 ILI       0.034867
     46 H1          -8.5910     3.2180     0.1140 ha         1 ILI       0.127000
     47 H2          -7.3610     2.6280     2.1890 h4         1 ILI       0.026100
     48 H111        -3.1890    -0.8110    -1.6360 h1         1 ILI       0.065700
     49 H112        -2.0130     0.2350    -0.9200 h1         1 ILI       0.065700
     50 H12         -1.2530    -2.1150    -1.3040 h1         1 ILI       0.053700
     51 H14         -0.5450    -1.5450     2.8470 ha         1 ILI       0.182000
     52 H16         -3.9950     0.6020     2.1580 h1         1 ILI       0.085700
     53 HO17        -3.1300    -3.2180    -0.5790 ho         1 ILI       0.465000
     54 H181        -1.6940     1.8100     0.5720 hc         1 ILI       0.041033
     55 H182        -3.3560     2.4040     0.6620 hc         1 ILI       0.041033
     56 H183        -2.3380     2.3610     2.1040 hc         1 ILI       0.041033
     57 HN19         0.1480     0.3670     0.5490 hn         1 ILI       0.319500
     58 H231         2.3180    -0.2200    -3.0780 hc         1 ILI       0.058700
     59 H232         2.5570     1.4950    -2.7880 hc         1 ILI       0.058700
     60 H251         1.0320     1.8750    -4.8140 hc         1 ILI       0.034867
     61 H252         0.7800     0.1350    -4.9580 hc         1 ILI       0.034867
     62 H253        -0.6030     1.2140    -4.7990 hc         1 ILI       0.034867
     63 HN27         3.9300    -0.7030    -1.1310 hn         1 ILI       0.346500
     64 H31          6.5400     2.0780     1.4840 ha         1 ILI       0.230000
     65 H35          9.4600     1.2420     1.8580 ha         1 ILI       0.123000
     66 H36         11.0250    -0.5620     1.2150 ha         1 ILI       0.118000
     67 H37         10.2840    -2.4370    -0.1890 ha         1 ILI       0.118000
     68 H38          7.9430    -2.5870    -0.9970 ha         1 ILI       0.134000
     69 C24          0.4890     0.9130    -2.9470 c3         1 ILI      -0.060700
     70 C28          4.2580     0.9280     0.0530 c          1 ILI       0.649300
@<TRIPOS>BOND
     1     1     2 ar  
     2     1    11 ar  
     3     2     3 ar  
     4     2    12 1   
     5     3     4 ar  
     6     3    37 1   
     7     4    10 ar  
     8     4    38 1   
     9     5    17 1   
    10     5    18 1   
    11     5    22 1   
    12     5    39 1   
    13     6    18 2   
    14     6    19 1   
    15     6    40 1   
    16     7     8 1   
    17     7    22 1   
    18     7    23 2   
    19     8    24 1   
    20     8    26 1   
    21     8    41 1   
    22     9    43 1   
    23     9    44 1   
    24     9    45 1   
    25     9    69 1   
    26    10    11 ar  
    27    10    46 1   
    28    11    47 1   
    29    12    13 2   
    30    12    14 2   
    31    12    15 1   
    32    15    16 1   
    33    15    19 1   
    34    16    17 1   
    35    16    48 1   
    36    16    49 1   
    37    17    20 1   
    38    17    50 1   
    39    18    51 1   
    40    19    21 1   
    41    19    52 1   
    42    20    53 1   
    43    21    54 1   
    44    21    55 1   
    45    21    56 1   
    46    22    57 1   
    47    24    58 1   
    48    24    59 1   
    49    24    69 1   
    50    25    60 1   
    51    25    61 1   
    52    25    62 1   
    53    25    69 1   
    54    26    63 1   
    55    26    70 1   
    56    27    70 2   
    57    28    29 2   
    58    28    32 1   
    59    28    70 1   
    60    29    30 1   
    61    29    64 1   
    62    30    31 ar  
    63    30    33 ar  
    64    31    32 1   
    65    31    36 ar  
    66    33    34 ar  
    67    33    65 1   
    68    34    35 ar  
    69    34    66 1   
    70    35    36 ar  
    71    35    67 1   
    72    36    68 1   
    73    42    69 1   
@<TRIPOS>SUBSTRUCTURE
     1 ILI         1 TEMP              0 ****  ****    0 ROOT
