@<TRIPOS>MOLECULE
ILJ
   86    90     1     0     0
SMALL
No Charge or Current Charge


@<TRIPOS>ATOM
      1 C01        -21.7090    40.9900    20.4280 c          1 ILJ       0.676700
      2 C02        -17.3650    40.9140    18.3940 ca         1 ILJ      -0.172000
      3 C03        -16.3360    39.9700    18.4380 ca         1 ILJ       0.301000
      4 C04        -16.5440    38.7580    19.1020 ca         1 ILJ      -0.148000
      5 C05        -17.7750    38.4890    19.7260 ca         1 ILJ       0.113500
      6 C06        -18.8280    39.4300    19.7020 ca         1 ILJ      -0.098300
      7 C07        -18.5970    40.6470    19.0130 ca         1 ILJ      -0.052000
      8 C08        -20.2230    39.1850    20.3310 c5         1 ILJ       0.344900
      9 C09        -20.4310    38.0290    21.3430 ca         1 ILJ      -0.103300
     10 C10        -19.5250    36.9600    21.5150 ca         1 ILJ       0.119500
     11 C11        -19.7920    35.9190    22.4220 ca         1 ILJ      -0.157000
     12 C12        -20.9680    35.9150    23.1780 ca         1 ILJ       0.333000
     13 C13        -21.8850    36.9620    23.0160 ca         1 ILJ      -0.189000
     14 C14        -21.6220    38.0000    22.1080 ca         1 ILJ      -0.051000
     15 C20        -21.2570    39.0760    19.2300 ca         1 ILJ      -0.094300
     16 C21        -22.1210    40.1350    19.2970 ca         1 ILJ      -0.176600
     17 C22        -23.1740    40.2950    18.3870 ca         1 ILJ      -0.046000
     18 C23        -23.3380    39.3160    17.3860 ca         1 ILJ      -0.100000
     19 C24        -22.4660    38.1920    17.3150 ca         1 ILJ      -0.129600
     20 C25        -21.3990    38.0910    18.2420 ca         1 ILJ      -0.050000
     21 C26        -22.5990    37.1300    16.2420 c          1 ILJ       0.611700
     22 C30        -25.9800    35.6830    16.3950 c3         1 ILJ       0.143600
     23 C32        -26.8560    34.0650    14.8150 c3         1 ILJ       0.127600
     24 C33        -26.8840    33.7370    13.2970 c3         1 ILJ       0.149600
     25 C35        -24.9230    32.2640    13.2730 c3         1 ILJ       0.157600
     26 C36        -23.5780    32.0970    12.5350 c3         1 ILJ      -0.081400
     27 C37        -23.7220    31.8570    11.0130 c3         1 ILJ      -0.069400
     28 C38        -22.3640    31.6560    10.3040 c3         1 ILJ      -0.077400
     29 C39        -22.5090    31.4160     8.7820 c3         1 ILJ      -0.084400
     30 C40        -21.1650    31.2560     8.0400 c3         1 ILJ       0.137600
     31 N15        -21.2040    34.8670    24.0710 nu         1 ILJ      -0.969200
     32 N28        -23.8420    36.8010    15.7530 ns         1 ILJ      -0.502900
     33 O27        -21.6160    36.5890    15.7600 o          1 ILJ      -0.599100
     34 O31        -26.1120    35.2820    15.0180 os         1 ILJ      -0.460000
     35 O34        -25.5540    33.4660    12.7920 os         1 ILJ      -0.449000
     36 O42        -22.2470    42.0280    20.7830 o          1 ILJ      -0.490000
     37 O43        -20.6000    40.4270    21.0230 os         1 ILJ      -0.429100
     38 SI17       -17.9830    36.8990    20.5670 s6         1 ILJ      -0.291000
     39 H021       -17.2180    41.8580    17.8760 ha         1 ILJ       0.115000
     40 H041       -15.7510    38.0180    19.1330 ha         1 ILJ       0.105000
     41 H071       -19.3800    41.3980    18.9460 ha         1 ILJ       0.119000
     42 H111       -19.0790    35.1090    22.5340 ha         1 ILJ       0.104000
     43 H131       -22.8090    36.9790    23.5840 ha         1 ILJ       0.110000
     44 H141       -22.3640    38.7870    21.9990 ha         1 ILJ       0.108000
     45 H183       -16.7270    35.5820    22.1430 h1         1 ILJ       0.058867
     46 H182       -15.6550    36.5200    21.0460 h1         1 ILJ       0.058867
     47 H181       -16.4990    37.3480    22.4030 h1         1 ILJ       0.058867
     48 H192       -18.2190    34.6140    19.8610 h1         1 ILJ       0.058867
     49 H193       -18.9280    35.7620    18.6700 h1         1 ILJ       0.058867
     50 H191       -17.1440    35.5520    18.7630 h1         1 ILJ       0.058867
     51 H221       -23.8390    41.1550    18.4440 ha         1 ILJ       0.139000
     52 H231       -24.1280    39.4510    16.6530 ha         1 ILJ       0.124000
     53 H251       -20.7030    37.2560    18.1990 ha         1 ILJ       0.147000
     54 H291       -25.6840    37.7880    15.9690 h1         1 ILJ       0.056200
     55 H292       -24.9600    37.2280    17.4970 h1         1 ILJ       0.056200
     56 H301       -26.9630    35.8760    16.8440 h1         1 ILJ       0.033200
     57 H302       -25.4810    34.8980    16.9790 h1         1 ILJ       0.033200
     58 H322       -27.8890    34.1910    15.1650 h1         1 ILJ       0.034200
     59 H321       -26.4160    33.2320    15.3780 h1         1 ILJ       0.034200
     60 H332       -27.3230    34.5900    12.7640 h1         1 ILJ       0.053200
     61 H331       -27.5420    32.8740    13.1290 h1         1 ILJ       0.053200
     62 H352       -25.5570    31.3870    13.0850 h1         1 ILJ       0.017200
     63 H351       -24.7270    32.3270    14.3500 h1         1 ILJ       0.017200
     64 H361       -23.0450    31.2490    12.9820 hc         1 ILJ       0.058700
     65 H362       -22.9610    32.9860    12.7130 hc         1 ILJ       0.058700
     66 H372       -24.2410    32.7090    10.5580 hc         1 ILJ       0.040200
     67 H371       -24.3500    30.9720    10.8470 hc         1 ILJ       0.040200
     68 H381       -21.8460    30.8050    10.7610 hc         1 ILJ       0.048700
     69 H382       -21.7370    32.5410    10.4700 hc         1 ILJ       0.048700
     70 H391       -23.0480    32.2630     8.3390 hc         1 ILJ       0.049700
     71 H392       -23.1230    30.5240     8.6060 hc         1 ILJ       0.049700
     72 H2         -21.3380    31.1840     6.9590 h1         1 ILJ       0.062700
     73 H403       -20.5100    32.1150     8.2370 h1         1 ILJ       0.062700
     74 H411       -22.2740    33.7620    25.5360 h1         1 ILJ       0.034367
     75 H412       -22.4730    35.5290    25.6420 h1         1 ILJ       0.034367
     76 H413       -23.2960    34.6130    24.3510 h1         1 ILJ       0.034367
     77 H161       -14.4410    39.4950    17.7400 hn         1 ILJ       0.453000
     78 H162       -15.0380    41.0500    17.2320 hn         1 ILJ       0.453000
     79 H281       -23.8340    36.1430    14.9820 hn         1 ILJ       0.341500
     80 Cl1        -20.2800    29.7470     8.5470 cl         1 ILJ      -0.303000
     81 H1         -20.4770    34.1500    24.1170 hn         1 ILJ       0.481000
     82 C18        -16.5690    36.5510    21.6520 c3         1 ILJ      -0.121600
     83 C19        -18.0790    35.5680    19.3370 c3         1 ILJ      -0.121600
     84 C29        -25.1290    36.9700    16.4440 c3         1 ILJ       0.107000
     85 N16        -15.1370    40.2320    17.8300 nv         1 ILJ      -1.080000
     86 C41        -22.3760    34.6830    24.9470 c3         1 ILJ       0.212100
@<TRIPOS>BOND
     1     1    16 1   
     2     1    36 2   
     3     1    37 1   
     4     2     3 ar  
     5     2     7 ar  
     6     2    39 1   
     7     3     4 ar  
     8     3    85 1   
     9     4     5 ar  
    10     4    40 1   
    11     5     6 ar  
    12     5    38 1   
    13     6     7 ar  
    14     6     8 1   
    15     7    41 1   
    16     8     9 1   
    17     8    15 1   
    18     8    37 1   
    19     9    10 ar  
    20     9    14 ar  
    21    10    11 ar  
    22    10    38 1   
    23    11    12 ar  
    24    11    42 1   
    25    12    13 ar  
    26    12    31 1   
    27    13    14 ar  
    28    13    43 1   
    29    14    44 1   
    30    15    16 ar  
    31    15    20 ar  
    32    16    17 ar  
    33    17    18 ar  
    34    17    51 1   
    35    18    19 ar  
    36    18    52 1   
    37    19    20 ar  
    38    19    21 1   
    39    20    53 1   
    40    21    32 1   
    41    21    33 2   
    42    22    34 1   
    43    22    56 1   
    44    22    57 1   
    45    22    84 1   
    46    23    24 1   
    47    23    34 1   
    48    23    58 1   
    49    23    59 1   
    50    24    35 1   
    51    24    60 1   
    52    24    61 1   
    53    25    26 1   
    54    25    35 1   
    55    25    62 1   
    56    25    63 1   
    57    26    27 1   
    58    26    64 1   
    59    26    65 1   
    60    27    28 1   
    61    27    66 1   
    62    27    67 1   
    63    28    29 1   
    64    28    68 1   
    65    28    69 1   
    66    29    30 1   
    67    29    70 1   
    68    29    71 1   
    69    30    72 1   
    70    30    73 1   
    71    30    80 1   
    72    31    81 1   
    73    31    86 1   
    74    32    79 1   
    75    32    84 1   
    76    38    82 1   
    77    38    83 1   
    78    45    82 1   
    79    46    82 1   
    80    47    82 1   
    81    48    83 1   
    82    49    83 1   
    83    50    83 1   
    84    54    84 1   
    85    55    84 1   
    86    74    86 1   
    87    75    86 1   
    88    76    86 1   
    89    77    85 1   
    90    78    85 1   
@<TRIPOS>SUBSTRUCTURE
     1 ILJ         1 TEMP              0 ****  ****    0 ROOT
