@<TRIPOS>MOLECULE
ILJ
   86    90     1     0     0
SMALL
abcg2


@<TRIPOS>ATOM
      1 C01        -21.2410    40.2240    20.0420 c          1 ILJ       0.676700
      2 C02        -17.5440    38.9790    16.7890 ca         1 ILJ      -0.172000
      3 C03        -16.3450    38.7140    17.4560 ca         1 ILJ       0.301000
      4 C04        -16.4300    38.2640    18.7800 ca         1 ILJ      -0.148000
      5 C05        -17.6480    38.0800    19.4200 ca         1 ILJ       0.113500
      6 C06        -18.8450    38.3410    18.7360 ca         1 ILJ      -0.098300
      7 C07        -18.7610    38.8020    17.4240 ca         1 ILJ      -0.052000
      8 C08        -20.1860    38.2270    19.4490 c5         1 ILJ       0.344900
      9 C09        -20.3780    36.9870    20.3080 ca         1 ILJ      -0.103300
     10 C10        -19.3640    36.5540    21.1790 ca         1 ILJ       0.119500
     11 C11        -19.5790    35.4630    22.0030 ca         1 ILJ      -0.157000
     12 C12        -20.7950    34.7560    22.0110 ca         1 ILJ       0.333000
     13 C13        -21.8050    35.2120    21.1570 ca         1 ILJ      -0.189000
     14 C14        -21.5910    36.3070    20.3330 ca         1 ILJ      -0.051000
     15 C20        -21.3490    38.4870    18.5280 ca         1 ILJ      -0.094300
     16 C21        -21.9480    39.6770    18.8750 ca         1 ILJ      -0.176600
     17 C22        -23.0310    40.1890    18.1800 ca         1 ILJ      -0.046000
     18 C23        -23.5240    39.4430    17.1230 ca         1 ILJ      -0.100000
     19 C24        -22.9390    38.2190    16.7770 ca         1 ILJ      -0.129600
     20 C25        -21.8260    37.7430    17.4650 ca         1 ILJ      -0.050000
     21 C26        -23.4190    37.4190    15.6040 c          1 ILJ       0.611700
     22 C30        -26.6970    36.2310    16.5430 c3         1 ILJ       0.143600
     23 C32        -27.5890    34.6070    15.0370 c3         1 ILJ       0.127600
     24 C33        -27.1480    34.1890    13.6460 c3         1 ILJ       0.149600
     25 C35        -24.9450    33.4910    14.1940 c3         1 ILJ       0.157600
     26 C36        -23.5470    33.4710    13.6110 c3         1 ILJ      -0.081400
     27 C37        -23.4560    32.8170    12.2370 c3         1 ILJ      -0.069400
     28 C38        -22.0250    32.7520    11.7170 c3         1 ILJ      -0.077400
     29 C39        -21.9290    32.0570    10.3660 c3         1 ILJ      -0.084400
     30 C40        -20.5490    32.0680     9.7500 c3         1 ILJ       0.137600
     31 N15        -20.9480    33.6600    22.8040 nu         1 ILJ      -0.969200
     32 N28        -24.7370    37.2040    15.4800 ns         1 ILJ      -0.502900
     33 O27        -22.6030    36.9930    14.7960 o          1 ILJ      -0.599100
     34 O31        -27.2040    35.9420    15.2650 os         1 ILJ      -0.460000
     35 O34        -25.7700    34.3270    13.4110 os         1 ILJ      -0.449000
     36 O42        -21.4550    41.2350    20.6560 o          1 ILJ      -0.490000
     37 O43        -20.2590    39.3790    20.3610 os         1 ILJ      -0.429100
     38 SI17       -17.7000    37.4180    21.1740 s6         1 ILJ      -0.291000
     39 H021       -17.5250    39.3290    15.7630 ha         1 ILJ       0.115000
     40 H041       -15.5050    38.0500    19.3090 ha         1 ILJ       0.105000
     41 H071       -19.6530    39.0340    16.8570 ha         1 ILJ       0.119000
     42 H111       -18.7880    35.1250    22.6660 ha         1 ILJ       0.104000
     43 H131       -22.7680    34.7190    21.1250 ha         1 ILJ       0.110000
     44 H141       -22.4150    36.6150    19.7040 ha         1 ILJ       0.108000
     45 H183       -17.6510    38.3580    23.4700 h1         1 ILJ       0.058867
     46 H182       -16.6340    39.3040    22.3870 h1         1 ILJ       0.058867
     47 H181       -18.3860    39.5140    22.3570 h1         1 ILJ       0.058867
     48 H192       -16.3780    35.7470    22.4560 h1         1 ILJ       0.058867
     49 H193       -16.3250    35.3800    20.7310 h1         1 ILJ       0.058867
     50 H191       -15.3350    36.6800    21.3960 h1         1 ILJ       0.058867
     51 H221       -23.4800    41.1350    18.4510 ha         1 ILJ       0.139000
     52 H231       -24.3660    39.8180    16.5570 ha         1 ILJ       0.124000
     53 H251       -21.3580    36.8100    17.1800 ha         1 ILJ       0.147000
     54 H291       -26.3890    38.3220    16.1390 h1         1 ILJ       0.056200
     55 H292       -25.3870    37.6540    17.4190 h1         1 ILJ       0.056200
     56 H301       -27.4970    36.4410    17.2650 h1         1 ILJ       0.033200
     57 H302       -26.1140    35.3870    16.9340 h1         1 ILJ       0.033200
     58 H322       -28.6780    34.4920    15.1070 h1         1 ILJ       0.034200
     59 H321       -27.1570    33.9400    15.7920 h1         1 ILJ       0.034200
     60 H332       -27.6500    34.8060    12.8980 h1         1 ILJ       0.053200
     61 H331       -27.4790    33.1520    13.4880 h1         1 ILJ       0.053200
     62 H352       -25.3510    32.4690    14.2230 h1         1 ILJ       0.017200
     63 H351       -24.8980    33.8450    15.2330 h1         1 ILJ       0.017200
     64 H361       -22.9090    32.9270    14.3130 hc         1 ILJ       0.058700
     65 H362       -23.1560    34.4920    13.5730 hc         1 ILJ       0.058700
     66 H372       -24.0780    33.3610    11.5210 hc         1 ILJ       0.040200
     67 H371       -23.8670    31.8030    12.2950 hc         1 ILJ       0.040200
     68 H381       -21.3990    32.2300    12.4460 hc         1 ILJ       0.048700
     69 H382       -21.6200    33.7660    11.6330 hc         1 ILJ       0.048700
     70 H391       -22.5860    32.5620     9.6500 hc         1 ILJ       0.049700
     71 H392       -22.2910    31.0290    10.4400 hc         1 ILJ       0.049700
     72 H2         -20.5480    31.6090     8.7640 h1         1 ILJ       0.062700
     73 H403       -20.1520    33.0780     9.6680 h1         1 ILJ       0.062700
     74 H411       -22.0800    32.1950    23.7080 h1         1 ILJ       0.034367
     75 H412       -22.9910    33.6720    23.3830 h1         1 ILJ       0.034367
     76 H413       -22.5830    32.5670    22.0650 h1         1 ILJ       0.034367
     77 H161       -14.3440    38.4340    17.2450 hn         1 ILJ       0.453000
     78 H162       -15.1190    38.9360    15.8490 hn         1 ILJ       0.453000
     79 H281       -25.0110    36.6870    14.6540 hn         1 ILJ       0.341500
     80 CL1        -19.3620    31.1310    10.7420 cl         1 ILJ      -0.303000
     81 H1         -20.2590    33.5270    23.5240 hn         1 ILJ       0.481000
     82 C18        -17.5880    38.7800    22.4650 c3         1 ILJ      -0.121600
     83 C19        -16.3090    36.1900    21.4600 c3         1 ILJ      -0.121600
     84 C29        -25.8010    37.4480    16.4340 c3         1 ILJ       0.107000
     85 N16        -15.1290    38.9310    16.8560 nv         1 ILJ      -1.080000
     86 C41        -22.2140    33.0040    22.9950 c3         1 ILJ       0.212100
@<TRIPOS>BOND
     1     1    16 1   
     2     1    36 2   
     3     1    37 1   
     4     2     3 ar  
     5     2     7 ar  
     6     2    39 1   
     7     3     4 ar  
     8     3    85 1   
     9     4     5 ar  
    10     4    40 1   
    11     5     6 ar  
    12     5    38 1   
    13     6     7 ar  
    14     6     8 1   
    15     7    41 1   
    16     8     9 1   
    17     8    15 1   
    18     8    37 1   
    19     9    10 ar  
    20     9    14 ar  
    21    10    11 ar  
    22    10    38 1   
    23    11    12 ar  
    24    11    42 1   
    25    12    13 ar  
    26    12    31 1   
    27    13    14 ar  
    28    13    43 1   
    29    14    44 1   
    30    15    16 ar  
    31    15    20 ar  
    32    16    17 ar  
    33    17    18 ar  
    34    17    51 1   
    35    18    19 ar  
    36    18    52 1   
    37    19    20 ar  
    38    19    21 1   
    39    20    53 1   
    40    21    32 1   
    41    21    33 2   
    42    22    34 1   
    43    22    56 1   
    44    22    57 1   
    45    22    84 1   
    46    23    24 1   
    47    23    34 1   
    48    23    58 1   
    49    23    59 1   
    50    24    35 1   
    51    24    60 1   
    52    24    61 1   
    53    25    26 1   
    54    25    35 1   
    55    25    62 1   
    56    25    63 1   
    57    26    27 1   
    58    26    64 1   
    59    26    65 1   
    60    27    28 1   
    61    27    66 1   
    62    27    67 1   
    63    28    29 1   
    64    28    68 1   
    65    28    69 1   
    66    29    30 1   
    67    29    70 1   
    68    29    71 1   
    69    30    72 1   
    70    30    73 1   
    71    30    80 1   
    72    31    81 1   
    73    31    86 1   
    74    32    79 1   
    75    32    84 1   
    76    38    82 1   
    77    38    83 1   
    78    45    82 1   
    79    46    82 1   
    80    47    82 1   
    81    48    83 1   
    82    49    83 1   
    83    50    83 1   
    84    54    84 1   
    85    55    84 1   
    86    74    86 1   
    87    75    86 1   
    88    76    86 1   
    89    77    85 1   
    90    78    85 1   
@<TRIPOS>SUBSTRUCTURE
     1 ILJ         1 TEMP              0 ****  ****    0 ROOT
