@<TRIPOS>MOLECULE
ILL
   23    24     1     0     0
SMALL
No Charge or Current Charge


@<TRIPOS>ATOM
      1 C1          -0.5430    -2.1850    -0.1780 ca         1 ILL      -0.159000
      2 C2          -1.8860    -1.7770    -0.1260 ca         1 ILL      -0.052000
      3 C3          -2.1960    -0.4190     0.0480 ca         1 ILL       0.080000
      4 C4          -1.1700     0.5340     0.1720 ca         1 ILL      -0.052000
      5 Cl5         -3.8780     0.0930     0.1090 cl         1 ILL      -0.197000
      6 C6           0.1870     0.1340     0.1250 ca         1 ILL      -0.115800
      7 C7           0.4820    -1.2330    -0.0540 ca         1 ILL       0.103600
      8 N8           1.8270    -1.6280    -0.1090 ns         1 ILL      -0.373100
      9 C9           2.9240    -0.8170    -0.0100 c          1 ILL       0.564200
     10 C10          2.6020     0.6040     0.1800 cc         1 ILL      -0.275200
     11 C11          1.3090     1.0960     0.2520 cd         1 ILL       0.020600
     12 O12          4.0610    -1.2570    -0.0750 o          1 ILL      -0.544000
     13 C13          1.0890     2.5840     0.4600 c3         1 ILL       0.182000
     14 N14          0.9110     3.2890    -0.8290 n8         1 ILL      -0.988200
     15 H1          -0.3020    -3.2360    -0.3150 ha         1 ILL       0.126000
     16 H2          -2.6840    -2.5100    -0.2220 ha         1 ILL       0.133000
     17 H4          -1.4450     1.5760     0.3020 ha         1 ILL       0.126000
     18 H8           2.0140    -2.6130    -0.2400 hn         1 ILL       0.329500
     19 H10          3.4630     1.2570     0.2590 ha         1 ILL       0.211000
     20 H131         0.2120     2.7550     1.0980 h1         1 ILL       0.042700
     21 H132         1.9590     3.0140     0.9760 h1         1 ILL       0.042700
     22 H14          0.0700     2.9260    -1.2940 hn         1 ILL       0.398000
     23 H5           0.6840     4.2740    -0.6450 hn         1 ILL       0.398000
@<TRIPOS>BOND
     1     1     2 ar  
     2     1     7 ar  
     3     1    15 1   
     4     2     3 ar  
     5     2    16 1   
     6     3     4 ar  
     7     3     5 1   
     8     4     6 ar  
     9     4    17 1   
    10     6     7 ar  
    11     6    11 1   
    12     7     8 1   
    13     8     9 1   
    14     8    18 1   
    15     9    10 1   
    16     9    12 2   
    17    10    11 2   
    18    10    19 1   
    19    11    13 1   
    20    13    14 1   
    21    13    20 1   
    22    13    21 1   
    23    14    22 1   
    24    14    23 1   
@<TRIPOS>SUBSTRUCTURE
     1 ILL         1 TEMP              0 ****  ****    0 ROOT
