@<TRIPOS>MOLECULE
ILL
   23    24     1     0     0
SMALL
bcc


@<TRIPOS>ATOM
      1 C1          -0.5310    -2.1310    -0.2220 ca         1 ILL      -0.177000
      2 C2          -1.8420    -1.7150    -0.1760 ca         1 ILL      -0.070000
      3 C3          -2.1280    -0.3660     0.0310 ca         1 ILL      -0.011600
      4 C4          -1.1210     0.5580     0.1840 ca         1 ILL      -0.070000
      5 CL5         -3.7810     0.1490     0.0970 cl         1 ILL      -0.105400
      6 C6           0.2210     0.1540     0.1290 ca         1 ILL      -0.115800
      7 C7           0.5070    -1.2060    -0.0680 ca         1 ILL       0.103600
      8 N8           1.8100    -1.6210    -0.1050 ns         1 ILL      -0.440100
      9 C9           2.9040    -0.8100     0.0430 c          1 ILL       0.706700
     10 C10          2.5910     0.5940     0.2360 cc         1 ILL      -0.225200
     11 C11          1.3290     1.0710     0.2750 cd         1 ILL       0.020600
     12 O12          4.0410    -1.2630     0.0050 o          1 ILL      -0.619500
     13 C13          1.0730     2.5470     0.4270 c3         1 ILL       0.182000
     14 N14          0.7200     3.1350    -0.8590 n8         1 ILL      -0.877800
     15 H1          -0.3050    -3.1780    -0.3760 ha         1 ILL       0.144000
     16 H2          -2.6410    -2.4330    -0.2960 ha         1 ILL       0.151000
     17 H4          -1.3710     1.5950     0.3570 ha         1 ILL       0.144000
     18 H8           1.9920    -2.6070    -0.2490 hn         1 ILL       0.329500
     19 H10          3.4350     1.2630     0.3450 ha         1 ILL       0.161000
     20 H131         0.3300     2.7080     1.2180 h1         1 ILL       0.042700
     21 H132         1.9930     3.0210     0.7720 h1         1 ILL       0.042700
     22 H14         -0.2150     2.8550    -1.1300 hn         1 ILL       0.342800
     23 H5           0.6800     4.1410    -0.7540 hn         1 ILL       0.342800
@<TRIPOS>BOND
     1     1     2 ar  
     2     1     7 ar  
     3     1    15 1   
     4     2     3 ar  
     5     2    16 1   
     6     3     4 ar  
     7     3     5 1   
     8     4     6 ar  
     9     4    17 1   
    10     6     7 ar  
    11     6    11 1   
    12     7     8 1   
    13     8     9 1   
    14     8    18 1   
    15     9    10 1   
    16     9    12 2   
    17    10    11 2   
    18    10    19 1   
    19    11    13 1   
    20    13    14 1   
    21    13    20 1   
    22    13    21 1   
    23    14    22 1   
    24    14    23 1   
@<TRIPOS>SUBSTRUCTURE
     1 ILL         1 TEMP              0 ****  ****    0 ROOT
