@<TRIPOS>MOLECULE
ILM
   25    24     1     0     0
SMALL
No Charge or Current Charge


@<TRIPOS>ATOM
      1 C           -1.3680    -0.3100    -0.2080 c          1 ILM       0.546100
      2 N            0.3630    -2.1700     0.2520 n8         1 ILM      -0.992200
      3 O           -1.9040    -0.8690    -1.1580 o          1 ILM      -0.495000
      4 O1          -2.0050     0.5930     0.6080 os         1 ILM      -0.438100
      5 CA           0.0540    -0.6970     0.3410 c3         1 ILM       0.116500
      6 CB           1.2020     0.1600    -0.2990 c3         1 ILM      -0.048700
      7 CE1         -3.3410     0.9990     0.2580 c3         1 ILM       0.148900
      8 CG1          2.5730    -0.0860     0.4090 c3         1 ILM      -0.071400
      9 CG2          0.8550     1.6760    -0.3410 c3         1 ILM      -0.095100
     10 HA           0.0280    -0.4380     1.4100 h1         1 ILM       0.083700
     11 HB           1.3060    -0.1670    -1.3410 hc         1 ILM       0.058700
     12 H2          -0.3700    -2.6990     0.7420 hn         1 ILM       0.411000
     13 HD1          4.7190     0.2510     0.2150 hc         1 ILM       0.031367
     14 HE1         -3.7230     1.7250     0.9870 h1         1 ILM       0.048367
     15 HD1A         3.8400     0.3470    -1.3240 hc         1 ILM       0.031367
     16 HE1A        -3.3600     1.4700    -0.7340 h1         1 ILM       0.048367
     17 HG1          2.5090     0.2440     1.4530 hc         1 ILM       0.049700
     18 HD1B         3.7490     1.6840    -0.1500 hc         1 ILM       0.031367
     19 HE1B        -4.0230     0.1380     0.2470 h1         1 ILM       0.048367
     20 HG1A         2.7820    -1.1610     0.4390 hc         1 ILM       0.049700
     21 HG2         -0.0600     1.8630    -0.9140 hc         1 ILM       0.038033
     22 HG2A         0.7150     2.0720     0.6720 hc         1 ILM       0.038033
     23 HG2B         1.6460     2.2550    -0.8290 hc         1 ILM       0.038033
     24 H            0.2480    -2.4710    -0.7240 hn         1 ILM       0.411000
     25 CD1          3.7910     0.5940    -0.2570 c3         1 ILM      -0.088100
@<TRIPOS>BOND
     1     1     3 2   
     2     1     4 1   
     3     1     5 1   
     4     2     5 1   
     5     2    12 1   
     6     2    24 1   
     7     4     7 1   
     8     5     6 1   
     9     5    10 1   
    10     6     8 1   
    11     6     9 1   
    12     6    11 1   
    13     7    14 1   
    14     7    16 1   
    15     7    19 1   
    16     8    17 1   
    17     8    20 1   
    18     8    25 1   
    19     9    21 1   
    20     9    22 1   
    21     9    23 1   
    22    13    25 1   
    23    15    25 1   
    24    18    25 1   
@<TRIPOS>SUBSTRUCTURE
     1 ILM         1 TEMP              0 ****  ****    0 ROOT
