@<TRIPOS>MOLECULE
ILM
   25    24     1     0     0
SMALL
abcg2


@<TRIPOS>ATOM
      1 C           -1.2860    -0.2760    -0.1640 c          1 ILM       0.546100
      2 N            0.3460    -2.0610     0.2920 n8         1 ILM      -0.992200
      3 O           -1.6630    -0.6300    -1.2550 o          1 ILM      -0.495000
      4 O1          -2.0130     0.4700     0.6540 os         1 ILM      -0.438100
      5 CA           0.0720    -0.6430     0.4180 c3         1 ILM       0.116500
      6 CB           1.1710     0.1940    -0.2670 c3         1 ILM      -0.048700
      7 CE1         -3.2940     0.9030     0.1920 c3         1 ILM       0.148900
      8 CG1          2.5220    -0.0710     0.4040 c3         1 ILM      -0.071400
      9 CG2          0.8280     1.6820    -0.2590 c3         1 ILM      -0.095100
     10 HA           0.0730    -0.3900     1.4830 h1         1 ILM       0.083700
     11 HB           1.2350    -0.1390    -1.3110 hc         1 ILM       0.058700
     12 H2          -0.3250    -2.5980     0.8260 hn         1 ILM       0.411000
     13 HD1          4.6490     0.2230     0.1310 hc         1 ILM       0.031367
     14 HE1         -3.7190     1.4930     0.9990 h1         1 ILM       0.048367
     15 HD1A         3.7500     0.1080    -1.3770 hc         1 ILM       0.031367
     16 HE1A        -3.2060     1.5240    -0.7000 h1         1 ILM       0.048367
     17 HG1          2.4980     0.3450     1.4180 hc         1 ILM       0.049700
     18 HD1B         3.6890     1.5850    -0.4190 hc         1 ILM       0.031367
     19 HE1B        -3.9470     0.0580    -0.0210 h1         1 ILM       0.048367
     20 HG1A         2.6510    -1.1480     0.5170 hc         1 ILM       0.049700
     21 HG2         -0.0500     1.9150    -0.8640 hc         1 ILM       0.038033
     22 HG2A         0.6400     2.0370     0.7570 hc         1 ILM       0.038033
     23 HG2B         1.6460     2.2750    -0.6660 hc         1 ILM       0.038033
     24 H            0.2460    -2.3510    -0.6740 hn         1 ILM       0.411000
     25 CD1          3.7130     0.4960    -0.3570 c3         1 ILM      -0.088100
@<TRIPOS>BOND
     1     1     3 2   
     2     1     4 1   
     3     1     5 1   
     4     2     5 1   
     5     2    12 1   
     6     2    24 1   
     7     4     7 1   
     8     5     6 1   
     9     5    10 1   
    10     6     8 1   
    11     6     9 1   
    12     6    11 1   
    13     7    14 1   
    14     7    16 1   
    15     7    19 1   
    16     8    17 1   
    17     8    20 1   
    18     8    25 1   
    19     9    21 1   
    20     9    22 1   
    21     9    23 1   
    22    13    25 1   
    23    15    25 1   
    24    18    25 1   
@<TRIPOS>SUBSTRUCTURE
     1 ILM         1 TEMP              0 ****  ****    0 ROOT
