@<TRIPOS>MOLECULE
ILN
   52    56     1     0     0
SMALL
No Charge or Current Charge


@<TRIPOS>ATOM
      1 C10         94.2310   -13.5220     7.8090 ca         1 ILN      -0.115900
      2 C11         95.1700   -13.3980     6.7560 ca         1 ILN      -0.069500
      3 C13         94.4620   -15.5310     5.8190 ca         1 ILN      -0.093000
      4 C15         93.4090   -14.6760     7.8430 ca         1 ILN      -0.069500
      5 C17         91.7800    -9.5690    14.2690 c          1 ILN       0.640700
      6 C18         91.4100    -8.5680    15.3290 cc         1 ILN      -0.158600
      7 C20         91.8690    -7.2710    15.5940 cd         1 ILN      -0.241600
      8 C21         91.1080    -6.8050    16.6890 cd         1 ILN       0.261900
      9 C24         93.0010    -6.5030    14.9860 c          1 ILN       0.651700
     10 C27         91.7560    -4.2630    15.1550 c6         1 ILN       0.061000
     11 C28         91.7140    -3.2880    13.9470 c6         1 ILN       0.131600
     12 N1          94.1800    -9.0720    11.6240 nc         1 ILN      -0.729000
     13 C2          94.7740    -9.5410    10.5000 cd         1 ILN       0.586400
     14 C3          92.7520   -11.0440    11.7320 cd         1 ILN      -0.186000
     15 C4          93.1890    -9.8240    12.2280 cc         1 ILN       0.491900
     16 C5          93.3930   -11.5020    10.5580 cd         1 ILN      -0.010000
     17 N6          94.3710   -10.7790     9.9690 na         1 ILN       0.046900
     18 N7          94.8720   -11.3710     8.8430 nd         1 ILN      -0.589100
     19 C8          94.1160   -12.4730     8.8410 cc         1 ILN       0.604900
     20 N9          93.1990   -12.5970     9.8660 nc         1 ILN      -0.404300
     21 C12         95.2830   -14.3940     5.7710 ca         1 ILN      -0.124000
     22 C14         93.5260   -15.6700     6.8550 ca         1 ILN      -0.124000
     23 O19         91.2530   -10.6690    14.2230 o          1 ILN      -0.582100
     24 N22         90.2190    -7.6640    17.1230 nc         1 ILN      -0.503800
     25 N23         90.4060    -8.7430    16.2950 na         1 ILN       0.167800
     26 O25         93.9220    -7.0430    14.3960 o          1 ILN      -0.629100
     27 N26         93.0020    -5.0970    15.1600 n          1 ILN      -0.394800
     28 O29         92.9340    -2.5190    13.8720 os         1 ILN      -0.449000
     29 C30         94.1110    -3.3430    13.7230 c6         1 ILN       0.131600
     30 C31         94.2420    -4.2890    14.9420 c6         1 ILN       0.061000
     31 C32         89.5570    -9.9310    16.4920 c3         1 ILN       0.072900
     32 H1          95.8190   -12.5260     6.6960 ha         1 ILN       0.132000
     33 H2          94.5500   -16.3010     5.0560 ha         1 ILN       0.113000
     34 H3          92.6750   -14.8130     8.6340 ha         1 ILN       0.132000
     35 H4          91.2020    -5.8630    17.2150 h4         1 ILN       0.048100
     36 H6          91.7000    -3.6880    16.0900 h1         1 ILN       0.070950
     37 H7          91.5870    -3.8550    13.0130 h1         1 ILN       0.058950
     38 H8          90.8610    -2.6020    14.0470 h1         1 ILN       0.058950
     39 H9          95.5560    -9.0000     9.9820 h5         1 ILN       0.073100
     40 H10         91.9680   -11.6290    12.1890 ha         1 ILN       0.182000
     41 H11         96.0090   -14.2830     4.9690 ha         1 ILN       0.115500
     42 H12         92.8880   -16.5510     6.8940 ha         1 ILN       0.115500
     43 H14         94.0350    -3.9270    12.7950 h1         1 ILN       0.058950
     44 H15         94.9980    -2.6970    13.6520 h1         1 ILN       0.058950
     45 H16         94.4340    -3.6870    15.8410 h1         1 ILN       0.070950
     46 H17         95.1170    -4.9390    14.8030 h1         1 ILN       0.070950
     47 H18         88.8710    -9.7700    17.3320 h1         1 ILN       0.072367
     48 H19         88.9720   -10.1170    15.5830 h1         1 ILN       0.072367
     49 H20         90.1880   -10.8010    16.7070 h1         1 ILN       0.072367
     50 N16         92.7100    -9.1870    13.3410 ns         1 ILN      -0.478400
     51 H5          90.8570    -4.8890    15.0920 h1         1 ILN       0.070950
     52 H13         93.1470    -8.2970    13.5310 hn         1 ILN       0.390500
@<TRIPOS>BOND
     1     1     2 ar  
     2     1     4 ar  
     3     1    19 1   
     4     2    21 ar  
     5     2    32 1   
     6     3    21 ar  
     7     3    22 ar  
     8     3    33 1   
     9     4    22 ar  
    10     4    34 1   
    11     5     6 1   
    12     5    23 2   
    13     5    50 1   
    14     6     7 2   
    15     6    25 1   
    16     7     8 1   
    17     7     9 1   
    18     8    24 2   
    19     8    35 1   
    20     9    26 2   
    21     9    27 1   
    22    10    11 1   
    23    10    27 1   
    24    10    36 1   
    25    10    51 1   
    26    11    28 1   
    27    11    37 1   
    28    11    38 1   
    29    12    13 2   
    30    12    15 1   
    31    13    17 1   
    32    13    39 1   
    33    14    15 2   
    34    14    16 1   
    35    14    40 1   
    36    15    50 1   
    37    16    17 1   
    38    16    20 2   
    39    17    18 1   
    40    18    19 2   
    41    19    20 1   
    42    21    41 1   
    43    22    42 1   
    44    24    25 1   
    45    25    31 1   
    46    27    30 1   
    47    28    29 1   
    48    29    30 1   
    49    29    43 1   
    50    29    44 1   
    51    30    45 1   
    52    30    46 1   
    53    31    47 1   
    54    31    48 1   
    55    31    49 1   
    56    50    52 1   
@<TRIPOS>SUBSTRUCTURE
     1 ILN         1 TEMP              0 ****  ****    0 ROOT
