@<TRIPOS>MOLECULE
ILN
   52    56     1     0     0
SMALL
abcg2


@<TRIPOS>ATOM
      1 C10         94.1910   -13.2800     7.8790 ca         1 ILN      -0.115900
      2 C11         95.3260   -13.2930     7.0610 ca         1 ILN      -0.069500
      3 C13         94.3030   -14.9530     5.6450 ca         1 ILN      -0.093000
      4 C15         93.1130   -14.1130     7.5660 ca         1 ILN      -0.069500
      5 C17         91.7080    -9.4040    14.3190 c          1 ILN       0.640700
      6 C18         91.4690    -8.4700    15.4490 cc         1 ILN      -0.158600
      7 C20         91.9870    -7.2060    15.7600 cd         1 ILN      -0.241600
      8 C21         91.2910    -6.8170    16.9170 cd         1 ILN       0.261900
      9 C24         93.1080    -6.4790    15.1160 c          1 ILN       0.651700
     10 C27         91.7130    -4.4090    14.9190 c6         1 ILN       0.061000
     11 C28         91.4640    -3.7690    13.5590 c6         1 ILN       0.131600
     12 N1          94.6880    -9.5460    12.3050 nc         1 ILN      -0.729000
     13 C2          95.2760   -10.0630    11.2720 cd         1 ILN       0.586400
     14 C3          92.7200   -10.8860    11.8940 cd         1 ILN      -0.186000
     15 C4          93.4180    -9.9440    12.6230 cc         1 ILN       0.491900
     16 C5          93.3740   -11.4290    10.7800 cd         1 ILN      -0.010000
     17 N6          94.6580   -10.9870    10.5040 na         1 ILN       0.046900
     18 N7          95.1390   -11.6100     9.3980 nd         1 ILN      -0.589100
     19 C8          94.1250   -12.4020     9.0500 cc         1 ILN       0.604900
     20 N9          93.0300   -12.3270     9.8620 nc         1 ILN      -0.404300
     21 C12         95.3800   -14.1240     5.9520 ca         1 ILN      -0.124000
     22 C14         93.1710   -14.9440     6.4540 ca         1 ILN      -0.124000
     23 O19         90.8520   -10.2010    13.9570 o          1 ILN      -0.582100
     24 N22         90.4240    -7.7500    17.2940 nc         1 ILN      -0.503800
     25 N23         90.5270    -8.7370    16.3930 na         1 ILN       0.167800
     26 O25         94.1640    -7.0860    14.8530 o          1 ILN      -0.629100
     27 N26         92.9680    -5.1620    14.8830 n          1 ILN      -0.394800
     28 O29         92.5640    -2.9670    13.1420 os         1 ILN      -0.449000
     29 C30         93.7550    -3.7440    13.0540 c6         1 ILN       0.131600
     30 C31         94.1000    -4.3720    14.3950 c6         1 ILN       0.061000
     31 C32         89.6780    -9.9120    16.5450 c3         1 ILN       0.072900
     32 H1          96.1620   -12.6490     7.2980 ha         1 ILN       0.132000
     33 H2          94.3460   -15.6000     4.7780 ha         1 ILN       0.113000
     34 H3          92.2350   -14.1050     8.1960 ha         1 ILN       0.132000
     35 H4          91.4030    -5.9110    17.4910 h4         1 ILN       0.048100
     36 H6          91.7850    -3.6380    15.6910 h1         1 ILN       0.070950
     37 H7          91.2750    -4.5530    12.8140 h1         1 ILN       0.058950
     38 H8          90.5950    -3.1140    13.6150 h1         1 ILN       0.058950
     39 H9          96.2800    -9.7770    10.9860 h5         1 ILN       0.073100
     40 H10         91.7240   -11.1940    12.1560 ha         1 ILN       0.182000
     41 H11         96.2620   -14.1270     5.3250 ha         1 ILN       0.115500
     42 H12         92.3310   -15.5860     6.2200 ha         1 ILN       0.115500
     43 H14         93.6300    -4.5280    12.2970 h1         1 ILN       0.058950
     44 H15         94.5520    -3.0700    12.7400 h1         1 ILN       0.058950
     45 H16         94.3070    -3.5870    15.1280 h1         1 ILN       0.070950
     46 H17         94.9690    -5.0160    14.3060 h1         1 ILN       0.070950
     47 H18         89.2610    -9.8690    17.5460 h1         1 ILN       0.072367
     48 H19         88.8800    -9.9020    15.8050 h1         1 ILN       0.072367
     49 H20         90.2690   -10.8160    16.4220 h1         1 ILN       0.072367
     50 N16         92.9380    -9.2870    13.7450 ns         1 ILN      -0.478400
     51 H5          90.8860    -5.0690    15.1580 h1         1 ILN       0.070950
     52 H13         93.5820    -8.5970    14.1530 hn         1 ILN       0.390500
@<TRIPOS>BOND
     1     1     2 ar  
     2     1     4 ar  
     3     1    19 1   
     4     2    21 ar  
     5     2    32 1   
     6     3    21 ar  
     7     3    22 ar  
     8     3    33 1   
     9     4    22 ar  
    10     4    34 1   
    11     5     6 1   
    12     5    23 2   
    13     5    50 1   
    14     6     7 2   
    15     6    25 1   
    16     7     8 1   
    17     7     9 1   
    18     8    24 2   
    19     8    35 1   
    20     9    26 2   
    21     9    27 1   
    22    10    11 1   
    23    10    27 1   
    24    10    36 1   
    25    10    51 1   
    26    11    28 1   
    27    11    37 1   
    28    11    38 1   
    29    12    13 2   
    30    12    15 1   
    31    13    17 1   
    32    13    39 1   
    33    14    15 2   
    34    14    16 1   
    35    14    40 1   
    36    15    50 1   
    37    16    17 1   
    38    16    20 2   
    39    17    18 1   
    40    18    19 2   
    41    19    20 1   
    42    21    41 1   
    43    22    42 1   
    44    24    25 1   
    45    25    31 1   
    46    27    30 1   
    47    28    29 1   
    48    29    30 1   
    49    29    43 1   
    50    29    44 1   
    51    30    45 1   
    52    30    46 1   
    53    31    47 1   
    54    31    48 1   
    55    31    49 1   
    56    50    52 1   
@<TRIPOS>SUBSTRUCTURE
     1 ILN         1 TEMP              0 ****  ****    0 ROOT
