@<TRIPOS>MOLECULE
ILO
   26    25     1     0     0
SMALL
abcg2


@<TRIPOS>ATOM
      1 N           -2.1400     6.3440    62.8530 n8         1 ILO      -1.015200
      2 CA          -2.4650     5.8270    64.1910 c3         1 ILO       0.028500
      3 CB          -1.7620     6.6410    65.2770 c3         1 ILO      -0.050400
      4 CG          -0.2400     6.5480    65.2060 c3         1 ILO      -0.089400
      5 CD           0.4730     7.3600    66.2820 c3         1 ILO       0.233800
      6 NE           0.2760     8.7880    66.0680 nu         1 ILO      -0.904400
      7 CZ           0.4970     9.7760    66.9760 c2         1 ILO       0.633200
      8 CH1          0.6380     9.3500    68.4150 c3         1 ILO      -0.186400
      9 NH2          0.5530    11.0020    66.5730 n2         1 ILO      -0.885100
     10 C           -4.0050     5.7750    64.3930 c          1 ILO       0.712000
     11 OA1         -4.7230     5.8570    63.3620 o          1 ILO      -0.732000
     12 OA2         -4.4190     5.6110    65.5680 o          1 ILO      -0.732000
     13 HN1         -2.9140     6.0950    62.2450 hn         1 ILO       0.386000
     14 HN2A        -1.3050     5.9000    62.4900 hn         1 ILO       0.386000
     15 HCA         -2.1380     4.7800    64.2990 h1         1 ILO      -0.005300
     16 HCB1        -2.0740     7.6860    65.1840 hc         1 ILO       0.054200
     17 HCB2        -2.0980     6.2860    66.2530 hc         1 ILO       0.054200
     18 HCG1         0.0660     5.5030    65.3150 hc         1 ILO       0.034700
     19 HCG2         0.1150     6.8750    64.2230 hc         1 ILO       0.034700
     20 HCD1         0.0760     7.0900    67.2610 h1         1 ILO       0.022200
     21 HCD2         1.5420     7.1120    66.2830 h1         1 ILO       0.022200
     22 HNE          0.2820     9.0950    65.1050 hn         1 ILO       0.494000
     23 HC11         0.7700    10.2240    69.0490 hc         1 ILO       0.047700
     24 HC12        -0.2460     8.8010    68.7440 hc         1 ILO       0.047700
     25 HC13         1.4980     8.6900    68.5430 hc         1 ILO       0.047700
     26 HN2          0.6770    11.6210    67.3690 hn         1 ILO       0.364400
@<TRIPOS>BOND
     1     1     2 1   
     2     1    13 1   
     3     1    14 1   
     4     2     3 1   
     5     2    10 1   
     6     2    15 1   
     7     3     4 1   
     8     3    16 1   
     9     3    17 1   
    10     4     5 1   
    11     4    18 1   
    12     4    19 1   
    13     5     6 1   
    14     5    20 1   
    15     5    21 1   
    16     6     7 1   
    17     6    22 1   
    18     7     8 1   
    19     7     9 2   
    20     8    23 1   
    21     8    24 1   
    22     8    25 1   
    23     9    26 1   
    24    10    11 1   
    25    10    12 1   
@<TRIPOS>SUBSTRUCTURE
     1 ILO         1 TEMP              0 ****  ****    0 ROOT
