@<TRIPOS>MOLECULE
ILO
   26    25     1     0     0
SMALL
No Charge or Current Charge


@<TRIPOS>ATOM
      1 N           -2.1410     6.3530    62.6760 n8         1 ILO      -1.015200
      2 CA          -2.5830     5.8520    64.0280 c3         1 ILO       0.028500
      3 CB          -1.9360     6.6950    65.1650 c3         1 ILO      -0.050400
      4 CG          -0.3870     6.6100    65.2250 c3         1 ILO      -0.089400
      5 CD           0.2360     7.3570    66.4240 c3         1 ILO       0.233800
      6 NE           0.0960     8.8090    66.2740 nu         1 ILO      -0.904400
      7 CZ           0.5280     9.7570    67.1440 c2         1 ILO       0.633200
      8 CH1          1.2090     9.3350    68.4210 c3         1 ILO      -0.186400
      9 NH2          0.3190    10.9540    66.7890 n2         1 ILO      -0.885100
     10 C           -4.1540     5.6800    64.2320 c          1 ILO       0.712000
     11 OA1         -4.6680     4.6310    63.8600 o          1 ILO      -0.732000
     12 OA2         -4.7980     6.5850    64.7500 o          1 ILO      -0.732000
     13 HN1         -2.4550     5.6900    61.9560 hn         1 ILO       0.386000
     14 HN2A        -1.1170     6.3080    62.6210 hn         1 ILO       0.386000
     15 HCA         -2.1620     4.8410    64.1150 h1         1 ILO      -0.005300
     16 HCB1        -2.2480     7.7420    65.0630 hc         1 ILO       0.054200
     17 HCB2        -2.3350     6.3430    66.1250 hc         1 ILO       0.054200
     18 HCG1        -0.0990     5.5540    65.2990 hc         1 ILO       0.034700
     19 HCG2         0.0530     6.9910    64.2960 hc         1 ILO       0.034700
     20 HCD1        -0.2460     7.0230    67.3530 h1         1 ILO       0.022200
     21 HCD2         1.3010     7.0990    66.4850 h1         1 ILO       0.022200
     22 HNE         -0.3330     9.1790    65.4320 hn         1 ILO       0.494000
     23 HC11         1.4990    10.2020    69.0260 hc         1 ILO       0.047700
     24 HC12         0.5460     8.7140    69.0340 hc         1 ILO       0.047700
     25 HC13         2.1180     8.7600    68.2110 hc         1 ILO       0.047700
     26 HN2          0.6900    11.5720    67.5230 hn         1 ILO       0.364400
@<TRIPOS>BOND
     1     1     2 1   
     2     1    13 1   
     3     1    14 1   
     4     2     3 1   
     5     2    10 1   
     6     2    15 1   
     7     3     4 1   
     8     3    16 1   
     9     3    17 1   
    10     4     5 1   
    11     4    18 1   
    12     4    19 1   
    13     5     6 1   
    14     5    20 1   
    15     5    21 1   
    16     6     7 1   
    17     6    22 1   
    18     7     8 1   
    19     7     9 2   
    20     8    23 1   
    21     8    24 1   
    22     8    25 1   
    23     9    26 1   
    24    10    11 1   
    25    10    12 1   
@<TRIPOS>SUBSTRUCTURE
     1 ILO         1 TEMP              0 ****  ****    0 ROOT
