@<TRIPOS>MOLECULE
ILR
   37    39     1     0     0
SMALL
abcg2


@<TRIPOS>ATOM
      1 C16         26.4410   -25.9640    -5.6460 c5         1 ILR       0.124600
      2 C15         25.0870   -25.4760    -6.1320 c5         1 ILR       0.124600
      3 C10         26.1990   -23.3070    -1.5930 c6         1 ILR      -0.074400
      4 O14         25.0350   -24.1710    -5.5970 os         1 ILR      -0.467500
      5 C2          27.4070   -22.5870    -5.2380 c2         1 ILR       0.440300
      6 C8          26.4170   -22.8500    -4.1020 c6         1 ILR      -0.121300
      7 C7          25.4570   -21.6480    -4.0330 c6         1 ILR      -0.066400
      8 C6          24.8570   -21.2630    -5.3730 c6         1 ILR      -0.099400
      9 C5          25.9510   -21.1090    -6.4250 c6         1 ILR       0.116800
     10 N3          27.1780   -21.8460    -6.2410 n2         1 ILR      -0.599900
     11 C13         25.6810   -24.1960    -4.3540 c5         1 ILR       0.407000
     12 O17         26.6310   -25.2480    -4.4420 os         1 ILR      -0.467500
     13 C12         24.7100   -24.5300    -3.2190 c6         1 ILR      -0.099400
     14 C11         25.4150   -24.5850    -1.8670 c6         1 ILR      -0.067400
     15 C9          27.1430   -22.9710    -2.7440 c6         1 ILR      -0.062400
     16 H1          26.4590   -27.0380    -5.4510 h1         1 ILR       0.056450
     17 H2          27.2350   -25.7280    -6.3620 h1         1 ILR       0.056450
     18 H3          25.0080   -25.4210    -7.2170 h1         1 ILR       0.056450
     19 H4          24.2700   -26.1010    -5.7550 h1         1 ILR       0.056450
     20 H5          26.7810   -23.4160    -0.6750 hc         1 ILR       0.039200
     21 H6          25.5050   -22.4810    -1.4140 hc         1 ILR       0.039200
     22 H7          29.3250   -22.9910    -6.0860 hc         1 ILR       0.050700
     23 H8          29.3570   -22.7240    -4.3450 hc         1 ILR       0.050700
     24 H9          28.7780   -24.2530    -4.9670 hc         1 ILR       0.050700
     25 H10         26.0360   -20.8030    -3.6440 hc         1 ILR       0.044200
     26 H11         24.6620   -21.8170    -3.3070 hc         1 ILR       0.044200
     27 H12         24.3200   -20.3170    -5.2720 hc         1 ILR       0.050200
     28 H13         24.1210   -22.0010    -5.6830 hc         1 ILR       0.050200
     29 H14         26.2500   -20.0580    -6.4970 h1         1 ILR       0.056200
     30 H15         25.5660   -21.3580    -7.4180 h1         1 ILR       0.056200
     31 H16         23.9060   -23.7900    -3.1930 hc         1 ILR       0.050700
     32 H17         24.2340   -25.4910    -3.4330 hc         1 ILR       0.050700
     33 H18         24.6790   -24.7550    -1.0780 hc         1 ILR       0.045200
     34 H19         26.0930   -25.4430    -1.8430 hc         1 ILR       0.045200
     35 H20         27.9160   -23.7400    -2.7950 hc         1 ILR       0.049700
     36 H21         27.6600   -22.0290    -2.5370 hc         1 ILR       0.049700
     37 C1          28.7890   -23.1820    -5.1580 c3         1 ILR      -0.135400
@<TRIPOS>BOND
     1     1     2 1   
     2     1    12 1   
     3     1    16 1   
     4     1    17 1   
     5     2     4 1   
     6     2    18 1   
     7     2    19 1   
     8     3    14 1   
     9     3    15 1   
    10     3    20 1   
    11     3    21 1   
    12     4    11 1   
    13     5     6 1   
    14     5    10 2   
    15     5    37 1   
    16     6     7 1   
    17     6    11 1   
    18     6    15 1   
    19     7     8 1   
    20     7    25 1   
    21     7    26 1   
    22     8     9 1   
    23     8    27 1   
    24     8    28 1   
    25     9    10 1   
    26     9    29 1   
    27     9    30 1   
    28    11    12 1   
    29    11    13 1   
    30    13    14 1   
    31    13    31 1   
    32    13    32 1   
    33    14    33 1   
    34    14    34 1   
    35    15    35 1   
    36    15    36 1   
    37    22    37 1   
    38    23    37 1   
    39    24    37 1   
@<TRIPOS>SUBSTRUCTURE
     1 ILR         1 TEMP              0 ****  ****    0 ROOT
