@<TRIPOS>MOLECULE
ILR
   37    39     1     0     0
SMALL
No Charge or Current Charge


@<TRIPOS>ATOM
      1 C16         26.2000   -26.2930    -5.3960 c5         1 ILR       0.124600
      2 C15         25.0520   -25.5900    -6.1780 c5         1 ILR       0.124600
      3 C10         26.2070   -23.3690    -1.6050 c6         1 ILR      -0.074400
      4 O14         25.1610   -24.2080    -5.7680 os         1 ILR      -0.467500
      5 C2          27.4700   -22.4160    -5.2650 c2         1 ILR       0.440300
      6 C8          26.4590   -22.7980    -4.1420 c6         1 ILR      -0.121300
      7 C7          25.4190   -21.6190    -4.0250 c6         1 ILR      -0.066400
      8 C6          24.8460   -21.1900    -5.3880 c6         1 ILR      -0.099400
      9 C5          25.9730   -20.8240    -6.3740 c6         1 ILR       0.116800
     10 N3          27.2470   -21.5600    -6.2170 n2         1 ILR      -0.599900
     11 C13         25.7920   -24.2000    -4.4750 c5         1 ILR       0.407000
     12 O17         26.7980   -25.2170    -4.6370 os         1 ILR      -0.467500
     13 C12         24.7890   -24.6260    -3.3400 c6         1 ILR      -0.099400
     14 C11         25.4830   -24.6910    -1.9540 c6         1 ILR      -0.067400
     15 C9          27.1700   -22.9330    -2.7420 c6         1 ILR      -0.062400
     16 H1          25.8170   -27.0630    -4.7120 h1         1 ILR       0.056450
     17 H2          26.9520   -26.7430    -6.0570 h1         1 ILR       0.056450
     18 H3          25.1730   -25.6640    -7.2670 h1         1 ILR       0.056450
     19 H4          24.0660   -25.9840    -5.8990 h1         1 ILR       0.056450
     20 H5          26.7760   -23.5020    -0.6750 hc         1 ILR       0.039200
     21 H6          25.4720   -22.5810    -1.3930 hc         1 ILR       0.039200
     22 H7          29.4470   -22.7650    -6.1070 hc         1 ILR       0.050700
     23 H8          29.4410   -22.5480    -4.3610 hc         1 ILR       0.050700
     24 H9          28.8990   -24.0740    -5.0750 hc         1 ILR       0.050700
     25 H10         25.9150   -20.7440    -3.5800 hc         1 ILR       0.044200
     26 H11         24.5880   -21.8510    -3.3490 hc         1 ILR       0.044200
     27 H12         24.1830   -20.3240    -5.2580 hc         1 ILR       0.050200
     28 H13         24.2100   -21.9760    -5.8110 hc         1 ILR       0.050200
     29 H14         26.2020   -19.7540    -6.2550 h1         1 ILR       0.056200
     30 H15         25.6080   -20.9570    -7.4030 h1         1 ILR       0.056200
     31 H16         23.9390   -23.9350    -3.3030 hc         1 ILR       0.050700
     32 H17         24.3410   -25.6050    -3.5480 hc         1 ILR       0.050700
     33 H18         24.7420   -24.9250    -1.1770 hc         1 ILR       0.045200
     34 H19         26.2080   -25.5160    -1.9460 hc         1 ILR       0.045200
     35 H20         27.9780   -23.6750    -2.7890 hc         1 ILR       0.049700
     36 H21         27.6530   -21.9840    -2.4680 hc         1 ILR       0.049700
     37 C1          28.8820   -22.9870    -5.1940 c3         1 ILR      -0.135400
@<TRIPOS>BOND
     1     1     2 1   
     2     1    12 1   
     3     1    16 1   
     4     1    17 1   
     5     2     4 1   
     6     2    18 1   
     7     2    19 1   
     8     3    14 1   
     9     3    15 1   
    10     3    20 1   
    11     3    21 1   
    12     4    11 1   
    13     5     6 1   
    14     5    10 2   
    15     5    37 1   
    16     6     7 1   
    17     6    11 1   
    18     6    15 1   
    19     7     8 1   
    20     7    25 1   
    21     7    26 1   
    22     8     9 1   
    23     8    27 1   
    24     8    28 1   
    25     9    10 1   
    26     9    29 1   
    27     9    30 1   
    28    11    12 1   
    29    11    13 1   
    30    13    14 1   
    31    13    31 1   
    32    13    32 1   
    33    14    33 1   
    34    14    34 1   
    35    15    35 1   
    36    15    36 1   
    37    22    37 1   
    38    23    37 1   
    39    24    37 1   
@<TRIPOS>SUBSTRUCTURE
     1 ILR         1 TEMP              0 ****  ****    0 ROOT
