@<TRIPOS>MOLECULE
ILS
   49    52     1     0     0
SMALL
abcg2


@<TRIPOS>ATOM
      1 C10         94.9670   -14.4870     7.0730 ca         1 ILS      -0.097000
      2 C11         94.1970   -10.9100    11.7760 c3         1 ILS      -0.113700
      3 C15         92.4140    -8.3250    15.0310 cc         1 ILS      -0.151600
      4 C16         92.7420    -6.9850    15.2290 cd         1 ILS      -0.255600
      5 C17         92.4530    -6.7580    16.5830 cd         1 ILS       0.260900
      6 C20         92.3950    -9.2020    13.8240 c          1 ILS       0.622700
      7 C21         93.3200    -6.0100    14.2840 c          1 ILS       0.666700
      8 C25         93.2200    -3.6170    13.5520 cy         1 ILS       0.101000
      9 C26         92.0260    -2.8660    14.1760 cy         1 ILS      -0.117400
     10 C27         91.7650    -4.1040    15.0570 cy         1 ILS       0.101000
     11 C1          93.9710   -12.3270     8.4910 ca         1 ILS       0.074400
     12 C2          94.8520   -13.2460     9.0790 ca         1 ILS      -0.082200
     13 N3          93.6280   -11.3620     9.4070 nc         1 ILS      -0.582100
     14 C4          93.5820   -12.4910     7.1620 ca         1 ILS      -0.050000
     15 N5          95.0260   -12.8050    10.3660 na         1 ILS      -0.179600
     16 C6          95.3670   -14.3390     8.3910 ca         1 ILS      -0.114000
     17 C7          94.2690   -11.6780    10.5010 cd         1 ILS       0.428800
     18 C8          94.0880   -13.5760     6.4680 ca         1 ILS      -0.135000
     19 C9          95.8620   -13.4460    11.3510 c3         1 ILS       0.065900
     20 C12         93.3680    -9.6360    11.6360 c3         1 ILS       0.117000
     21 N13         93.2930    -8.9070    12.8820 ns         1 ILS      -0.496900
     22 N14         91.9750    -8.7820    16.2220 na         1 ILS       0.174800
     23 N18         92.0080    -7.8510    17.1650 nc         1 ILS      -0.518800
     24 O22         91.5930   -10.1240    13.7400 o          1 ILS      -0.618100
     25 N23         92.9130    -4.7490    14.4180 nj         1 ILS      -0.407800
     26 O24         94.1590    -6.3240    13.4360 o          1 ILS      -0.638100
     27 H34         95.3420   -15.3220     6.4960 ha         1 ILS       0.111000
     28 H36         93.7670   -11.5430    12.5590 hc         1 ILS       0.062200
     29 H35         95.2060   -10.6510    12.1100 hc         1 ILS       0.062200
     30 H40         92.5890    -5.8550    17.1570 h4         1 ILS       0.043100
     31 H42         91.5000   -10.1480    17.6740 h1         1 ILS       0.068367
     32 H41         90.5040   -10.2840    16.2130 h1         1 ILS       0.068367
     33 H43         92.1750   -10.8710    16.2070 h1         1 ILS       0.068367
     34 H44         94.2030    -3.1800    13.7350 h1         1 ILS       0.059950
     35 H45         93.1270    -3.8460    12.4900 h1         1 ILS       0.059950
     36 H46         92.2910    -1.9690    14.7290 hc         1 ILS       0.063700
     37 H47         91.2280    -2.6340    13.4760 hc         1 ILS       0.063700
     38 H49         90.8210    -4.6220    14.8840 h1         1 ILS       0.059950
     39 H48         91.8900    -3.9350    16.1260 h1         1 ILS       0.059950
     40 H28         92.9030   -11.7920     6.6920 ha         1 ILS       0.127000
     41 H29         96.0460   -15.0430     8.8550 ha         1 ILS       0.115000
     42 H30         93.8020   -13.7290     5.4350 ha         1 ILS       0.112000
     43 H33         95.8390   -12.8870    12.2810 h1         1 ILS       0.051033
     44 H32         95.5130   -14.4590    11.5490 h1         1 ILS       0.051033
     45 H31         96.8930   -13.4930    11.0030 h1         1 ILS       0.051033
     46 H37         93.8150    -8.9760    10.8950 h1         1 ILS       0.073700
     47 H38         92.3640    -9.8760    11.2880 h1         1 ILS       0.073700
     48 H39         93.8910    -8.0940    13.0160 hn         1 ILS       0.368500
     49 C19         91.5070   -10.1060    16.5890 c3         1 ILS       0.072900
@<TRIPOS>BOND
     1     1    16 ar  
     2     1    18 ar  
     3     1    27 1   
     4     2    17 1   
     5     2    20 1   
     6     2    28 1   
     7     2    29 1   
     8     3     4 2   
     9     3     6 1   
    10     3    22 1   
    11     4     5 1   
    12     4     7 1   
    13     5    23 2   
    14     5    30 1   
    15     6    21 1   
    16     6    24 2   
    17     7    25 1   
    18     7    26 2   
    19     8     9 1   
    20     8    25 1   
    21     8    34 1   
    22     8    35 1   
    23     9    10 1   
    24     9    36 1   
    25     9    37 1   
    26    10    25 1   
    27    10    38 1   
    28    10    39 1   
    29    11    12 ar  
    30    11    13 1   
    31    11    14 ar  
    32    12    15 1   
    33    12    16 ar  
    34    13    17 2   
    35    14    18 ar  
    36    14    40 1   
    37    15    17 1   
    38    15    19 1   
    39    16    41 1   
    40    18    42 1   
    41    19    43 1   
    42    19    44 1   
    43    19    45 1   
    44    20    21 1   
    45    20    46 1   
    46    20    47 1   
    47    21    48 1   
    48    22    23 1   
    49    22    49 1   
    50    31    49 1   
    51    32    49 1   
    52    33    49 1   
@<TRIPOS>SUBSTRUCTURE
     1 ILS         1 TEMP              0 ****  ****    0 ROOT
