@<TRIPOS>MOLECULE
ILS
   49    52     1     0     0
SMALL
No Charge or Current Charge


@<TRIPOS>ATOM
      1 C10         94.7940   -14.4550     7.1150 ca         1 ILS      -0.097000
      2 C11         94.4300   -10.2760    11.4340 c3         1 ILS      -0.113700
      3 C15         92.7450    -8.5270    15.3260 cc         1 ILS      -0.151600
      4 C16         92.5710    -7.1310    15.3400 cd         1 ILS      -0.255600
      5 C17         92.5200    -6.7670    16.7090 cd         1 ILS       0.260900
      6 C20         92.8750    -9.5360    14.2140 c          1 ILS       0.622700
      7 C21         92.4510    -6.1190    14.2340 c          1 ILS       0.666700
      8 C25         93.3060    -4.0250    14.0680 cy         1 ILS       0.101000
      9 C26         92.1450    -3.0160    13.8000 cy         1 ILS      -0.117400
     10 C27         91.1890    -4.2360    13.9940 cy         1 ILS       0.101000
     11 C1          94.8670   -11.9060     8.2710 ca         1 ILS       0.074400
     12 C2          94.5880   -13.0100     9.0320 ca         1 ILS      -0.082200
     13 N3          94.8570   -10.7420     9.0240 nc         1 ILS      -0.582100
     14 C4          95.1210   -12.0340     6.8970 ca         1 ILS      -0.050000
     15 N5          94.3840   -12.5960    10.3190 na         1 ILS      -0.179600
     16 C6          94.5420   -14.3050     8.4940 ca         1 ILS      -0.114000
     17 C7          94.5640   -11.2020    10.2570 cd         1 ILS       0.428800
     18 C8          95.0830   -13.3220     6.3190 ca         1 ILS      -0.135000
     19 C9          94.0450   -13.4710    11.4530 c3         1 ILS       0.065900
     20 C12         92.9590    -9.9320    11.7310 c3         1 ILS       0.117000
     21 N13         92.8190    -9.0910    12.9220 ns         1 ILS      -0.496900
     22 N14         92.7800    -8.8480    16.6930 na         1 ILS       0.174800
     23 N18         92.6430    -7.7750    17.5360 nc         1 ILS      -0.518800
     24 O22         93.0260   -10.7300    14.4280 o          1 ILS      -0.618100
     25 N23         92.2890    -4.8250    14.8300 nj         1 ILS      -0.407800
     26 O24         92.4990    -6.4600    13.0590 o          1 ILS      -0.638100
     27 H34         94.7670   -15.4440     6.6630 ha         1 ILS       0.111000
     28 H36         94.8880   -10.7360    12.3170 hc         1 ILS       0.062200
     29 H35         94.9840    -9.3480    11.2490 hc         1 ILS       0.062200
     30 H40         92.3960    -5.7800    17.1370 h4         1 ILS       0.043100
     31 H42         92.9320   -10.1140    18.3850 h1         1 ILS       0.068367
     32 H41         92.1260   -10.8350    16.9650 h1         1 ILS       0.068367
     33 H43         93.9030   -10.6130    16.9730 h1         1 ILS       0.068367
     34 H44         94.1050    -3.6260    14.7030 h1         1 ILS       0.059950
     35 H45         93.7310    -4.4640    13.1560 h1         1 ILS       0.059950
     36 H46         92.0400    -2.2380    14.5640 hc         1 ILS       0.063700
     37 H47         92.1320    -2.5500    12.8090 hc         1 ILS       0.063700
     38 H49         90.9210    -4.7430    13.0590 h1         1 ILS       0.059950
     39 H48         90.2860    -4.0070    14.5710 h1         1 ILS       0.059950
     40 H28         95.3420   -11.1590     6.2920 ha         1 ILS       0.127000
     41 H29         94.3200   -15.1690     9.1160 ha         1 ILS       0.115000
     42 H30         95.2770   -13.4430     5.2550 ha         1 ILS       0.112000
     43 H33         93.8230   -12.8730    12.3450 h1         1 ILS       0.051033
     44 H32         93.1650   -14.0760    11.2010 h1         1 ILS       0.051033
     45 H31         94.8910   -14.1360    11.6680 h1         1 ILS       0.051033
     46 H37         92.5280    -9.3990    10.8710 h1         1 ILS       0.073700
     47 H38         92.3810   -10.8560    11.8740 h1         1 ILS       0.073700
     48 H39         92.6890    -8.0940    12.7960 hn         1 ILS       0.368500
     49 C19         92.9460   -10.1850    17.2910 c3         1 ILS       0.072900
@<TRIPOS>BOND
     1     1    16 ar  
     2     1    18 ar  
     3     1    27 1   
     4     2    17 1   
     5     2    20 1   
     6     2    28 1   
     7     2    29 1   
     8     3     4 2   
     9     3     6 1   
    10     3    22 1   
    11     4     5 1   
    12     4     7 1   
    13     5    23 2   
    14     5    30 1   
    15     6    21 1   
    16     6    24 2   
    17     7    25 1   
    18     7    26 2   
    19     8     9 1   
    20     8    25 1   
    21     8    34 1   
    22     8    35 1   
    23     9    10 1   
    24     9    36 1   
    25     9    37 1   
    26    10    25 1   
    27    10    38 1   
    28    10    39 1   
    29    11    12 ar  
    30    11    13 1   
    31    11    14 ar  
    32    12    15 1   
    33    12    16 ar  
    34    13    17 2   
    35    14    18 ar  
    36    14    40 1   
    37    15    17 1   
    38    15    19 1   
    39    16    41 1   
    40    18    42 1   
    41    19    43 1   
    42    19    44 1   
    43    19    45 1   
    44    20    21 1   
    45    20    46 1   
    46    20    47 1   
    47    21    48 1   
    48    22    23 1   
    49    22    49 1   
    50    31    49 1   
    51    32    49 1   
    52    33    49 1   
@<TRIPOS>SUBSTRUCTURE
     1 ILS         1 TEMP              0 ****  ****    0 ROOT
