@<TRIPOS>MOLECULE
ILU
   89    92     1     0     0
SMALL
No Charge or Current Charge


@<TRIPOS>ATOM
      1 C01         10.6690     8.3220    44.5390 ce         1 ILU       0.267600
      2 C02          8.3020     8.9500    45.1770 ca         1 ILU      -0.125600
      3 C03          9.1920     8.2430    44.3340 ca         1 ILU      -0.097800
      4 C04          6.9130     8.8160    44.9590 ca         1 ILU      -0.072000
      5 C05          8.6900     7.4000    43.3230 ca         1 ILU      -0.053000
      6 C06         11.4660     9.2250    43.6270 ca         1 ILU      -0.164800
      7 C07         10.8290     9.8680    42.5390 ca         1 ILU       0.045000
      8 C08         12.8390     9.4820    43.8280 ca         1 ILU       0.188500
      9 C09         11.5470    10.7170    41.6820 ca         1 ILU      -0.225000
     10 C10         13.5510    10.3350    42.9680 ca         1 ILU      -0.199000
     11 C11         12.9100    10.9520    41.8930 ca         1 ILU       0.430000
     12 C12         11.2560     7.5280    45.6870 ca         1 ILU      -0.171000
     13 C13         10.4320     6.6270    46.4100 ca         1 ILU       0.026000
     14 C14         12.6080     7.6420    46.0810 ca         1 ILU      -0.258000
     15 C15         10.9400     5.8850    47.4900 ca         1 ILU      -0.224000
     16 C16         13.1100     6.8940    47.1650 ca         1 ILU      -0.202000
     17 C17         12.2760     6.0200    47.8690 ca         1 ILU       0.432000
     18 C18         13.1520    12.5320    39.8720 c3         1 ILU       0.192100
     19 C21          8.8340     9.8720    46.2620 c          1 ILU       0.632700
     20 C22          6.4180     7.9810    43.9440 ca         1 ILU      -0.070000
     21 C23          7.3020     7.2560    43.1110 ca         1 ILU      -0.119600
     22 C24          6.8120     6.3410    42.0060 c          1 ILU       0.605700
     23 C25          4.7870     5.4100    40.8160 c3         1 ILU       0.091000
     24 C26          4.8970     6.0250    39.4050 c3         1 ILU       0.134600
     25 C27          4.0970     5.6280    37.1240 c3         1 ILU       0.156600
     26 C28          5.4920     5.5630    36.4540 c3         1 ILU       0.124600
     27 C29          6.5480     5.8150    34.2930 c3         1 ILU       0.164600
     28 C30          6.2100     6.1270    32.8200 c3         1 ILU      -0.073400
     29 C31          5.3150     5.0620    32.1430 c3         1 ILU      -0.072400
     30 C32          5.0200     5.3760    30.6590 c3         1 ILU      -0.077400
     31 C33          4.1240     4.3100    29.9840 c3         1 ILU      -0.084400
     32 C34          3.7780     4.6230    28.5120 c3         1 ILU       0.134600
     33 C35          7.5220     8.8190    47.9960 c1         1 ILU       0.383200
     34 N01         12.7640     5.3000    48.9190 nv         1 ILU      -1.066000
     35 N02         13.6410    11.7930    41.0560 nu         1 ILU      -0.904200
     36 N03          5.4450     6.2260    41.8490 ns         1 ILU      -0.493900
     37 N04          8.2990     9.8010    47.5240 ns         1 ILU      -0.382700
     38 N05          6.8660     7.9690    48.4400 n1         1 ILU      -0.447000
     39 O01          9.6930    10.7070    46.0220 o          1 ILU      -0.526100
     40 O02          7.5830     5.7270    41.2830 o          1 ILU      -0.579100
     41 O03          4.1770     5.1700    38.4940 os         1 ILU      -0.446000
     42 O04          5.3290     5.8480    35.0530 os         1 ILU      -0.458000
     43 SI01        13.7010     8.7410    45.2040 sy         1 ILU       0.120500
     44 H01          6.2050     9.3770    45.5670 ha         1 ILU       0.143000
     45 H02          9.3930     6.8490    42.7000 ha         1 ILU       0.156000
     46 H03          9.7690     9.7220    42.3410 ha         1 ILU       0.131000
     47 H04         11.0290    11.1920    40.8550 ha         1 ILU       0.137000
     48 H05         14.6060    10.5210    43.1430 ha         1 ILU       0.121000
     49 H06          9.3870     6.4850    46.1430 ha         1 ILU       0.135000
     50 H07         10.2880     5.2030    48.0270 ha         1 ILU       0.142000
     51 H08         14.1510     6.9930    47.4600 ha         1 ILU       0.122000
     52 H11         13.9640    13.1120    39.4140 h1         1 ILU       0.062367
     53 H09         12.7590    11.8380    39.1160 h1         1 ILU       0.062367
     54 H10         12.3500    13.2290    40.1530 h1         1 ILU       0.062367
     55 H14         15.6670     7.3780    45.4700 h1         1 ILU       0.072367
     56 H15         14.8110     7.0300    43.9320 h1         1 ILU       0.072367
     57 H16         15.8210     8.5070    44.0840 h1         1 ILU       0.072367
     58 H18         14.8000     9.5710    47.1740 h1         1 ILU       0.072367
     59 H17         14.9510    10.7100    45.7940 h1         1 ILU       0.072367
     60 H19         13.4050    10.5960    46.7000 h1         1 ILU       0.072367
     61 H21          5.3400     7.9160    43.8180 ha         1 ILU       0.136000
     62 H24          3.7270     5.3010    41.0780 h1         1 ILU       0.077200
     63 H23          5.2370     4.4090    40.8100 h1         1 ILU       0.077200
     64 H26          5.9540     6.1020    39.1230 h1         1 ILU       0.028200
     65 H25          4.4630     7.0340    39.4130 h1         1 ILU       0.028200
     66 H27          3.7110     6.6540    37.0740 h1         1 ILU       0.061700
     67 H28          3.4090     4.9850    36.5590 h1         1 ILU       0.061700
     68 H29          5.9180     4.5610    36.5950 h1         1 ILU       0.025200
     69 H30          6.1630     6.2990    36.9150 h1         1 ILU       0.025200
     70 H31          7.0250     4.8290    34.3610 h1         1 ILU       0.019700
     71 H32          7.2540     6.5670    34.6690 h1         1 ILU       0.019700
     72 H33          7.1500     6.2100    32.2620 hc         1 ILU       0.048200
     73 H34          5.7230     7.1080    32.7650 hc         1 ILU       0.048200
     74 H36          4.3660     4.9840    32.6880 hc         1 ILU       0.045200
     75 H35          5.8050     4.0830    32.2130 hc         1 ILU       0.045200
     76 H37          5.9700     5.4550    30.1170 hc         1 ILU       0.046200
     77 H38          4.5290     6.3550    30.5900 hc         1 ILU       0.046200
     78 H40          3.1870     4.2250    30.5470 hc         1 ILU       0.051700
     79 H39          4.6150     3.3310    30.0350 hc         1 ILU       0.051700
     80 H41          3.0680     3.8790    28.1270 h1         1 ILU       0.064700
     81 H42          3.3280     5.6200    28.4240 h1         1 ILU       0.064700
     82 H12         12.1070     4.8500    49.5520 hn         1 ILU       0.511500
     83 H13         13.6620     5.5630    49.3180 hn         1 ILU       0.511500
     84 H20         14.6300    11.9010    41.2950 hn         1 ILU       0.510000
     85 H22          4.8630     6.7540    42.4860 hn         1 ILU       0.315500
     86 H43          8.6620    10.4650    48.1920 hn         1 ILU       0.359500
     87 Cl1          5.2470     4.5730    27.4380 cl         1 ILU      -0.299000
     88 C19         15.1480     7.8220    44.6120 c3         1 ILU      -0.114600
     89 C20         14.2740    10.0370    46.3330 c3         1 ILU      -0.114600
@<TRIPOS>BOND
     1     1     3 1   
     2     1     6 1   
     3     1    12 2   
     4     2     3 ar  
     5     2     4 ar  
     6     2    19 1   
     7     3     5 ar  
     8     4    20 ar  
     9     4    44 1   
    10     5    21 ar  
    11     5    45 1   
    12     6     7 ar  
    13     6     8 ar  
    14     7     9 ar  
    15     7    46 1   
    16     8    10 ar  
    17     8    43 1   
    18     9    11 ar  
    19     9    47 1   
    20    10    11 ar  
    21    10    48 1   
    22    11    35 1   
    23    12    13 ar  
    24    12    14 ar  
    25    13    15 ar  
    26    13    49 1   
    27    14    16 ar  
    28    14    43 2   
    29    15    17 ar  
    30    15    50 1   
    31    16    17 ar  
    32    16    51 1   
    33    17    34 1   
    34    18    35 1   
    35    18    52 1   
    36    18    53 1   
    37    18    54 1   
    38    19    37 1   
    39    19    39 2   
    40    20    21 ar  
    41    20    61 1   
    42    21    22 1   
    43    22    36 1   
    44    22    40 2   
    45    23    24 1   
    46    23    36 1   
    47    23    62 1   
    48    23    63 1   
    49    24    41 1   
    50    24    64 1   
    51    24    65 1   
    52    25    26 1   
    53    25    41 1   
    54    25    66 1   
    55    25    67 1   
    56    26    42 1   
    57    26    68 1   
    58    26    69 1   
    59    27    28 1   
    60    27    42 1   
    61    27    70 1   
    62    27    71 1   
    63    28    29 1   
    64    28    72 1   
    65    28    73 1   
    66    29    30 1   
    67    29    74 1   
    68    29    75 1   
    69    30    31 1   
    70    30    76 1   
    71    30    77 1   
    72    31    32 1   
    73    31    78 1   
    74    31    79 1   
    75    32    80 1   
    76    32    81 1   
    77    32    87 1   
    78    33    37 1   
    79    33    38 3   
    80    34    82 1   
    81    34    83 1   
    82    35    84 1   
    83    36    85 1   
    84    37    86 1   
    85    43    88 1   
    86    43    89 1   
    87    55    88 1   
    88    56    88 1   
    89    57    88 1   
    90    58    89 1   
    91    59    89 1   
    92    60    89 1   
@<TRIPOS>SUBSTRUCTURE
     1 ILU         1 TEMP              0 ****  ****    0 ROOT
