@<TRIPOS>MOLECULE
ILU
   89    92     1     0     0
SMALL
abcg2


@<TRIPOS>ATOM
      1 C01         10.6110     8.2770    44.5960 ce         1 ILU       0.267600
      2 C02          8.2430     8.8370    45.2030 ca         1 ILU      -0.125600
      3 C03          9.1420     8.1100    44.4180 ca         1 ILU      -0.097800
      4 C04          6.8770     8.6390    45.0560 ca         1 ILU      -0.072000
      5 C05          8.6550     7.1890    43.5070 ca         1 ILU      -0.053000
      6 C06         11.2920     8.9980    43.5870 ca         1 ILU      -0.164800
      7 C07         10.5660     9.5260    42.4840 ca         1 ILU       0.045000
      8 C08         12.7010     9.2390    43.6080 ca         1 ILU       0.188500
      9 C09         11.1690    10.1710    41.4450 ca         1 ILU      -0.225000
     10 C10         13.3040     9.8870    42.5680 ca         1 ILU      -0.199000
     11 C11         12.5730    10.3520    41.4400 ca         1 ILU       0.430000
     12 C12         11.1540     7.6860    45.7680 ca         1 ILU      -0.171000
     13 C13         10.3230     6.8940    46.6080 ca         1 ILU       0.026000
     14 C14         12.5110     7.8540    46.1780 ca         1 ILU      -0.258000
     15 C15         10.7610     6.3660    47.7860 ca         1 ILU      -0.224000
     16 C16         12.9470     7.3290    47.3640 ca         1 ILU      -0.202000
     17 C17         12.0890     6.5890    48.2180 ca         1 ILU       0.432000
     18 C18         12.5700    11.4690    39.2500 c3         1 ILU       0.192100
     19 C21          8.7670     9.8770    46.1320 c          1 ILU       0.632700
     20 C22          6.4010     7.7280    44.1270 ca         1 ILU      -0.070000
     21 C23          7.2860     7.0010    43.3400 ca         1 ILU      -0.119600
     22 C24          6.8540     5.9890    42.3190 c          1 ILU       0.605700
     23 C25          5.0460     5.2290    40.8530 c3         1 ILU       0.091000
     24 C26          5.3360     5.7270    39.4440 c3         1 ILU       0.134600
     25 C27          4.5740     5.3030    37.2420 c3         1 ILU       0.156600
     26 C28          5.8690     5.5080    36.4690 c3         1 ILU       0.124600
     27 C29          6.6510     6.1670    34.3590 c3         1 ILU       0.164600
     28 C30          6.2010     6.5690    32.9700 c3         1 ILU      -0.073400
     29 C31          5.4350     5.4820    32.2260 c3         1 ILU      -0.072400
     30 C32          5.0700     5.8970    30.8060 c3         1 ILU      -0.077400
     31 C33          4.3280     4.8020    30.0530 c3         1 ILU      -0.084400
     32 C34          3.8520     5.1990    28.6750 c3         1 ILU       0.134600
     33 C35          7.6910     8.7830    47.9880 c1         1 ILU       0.383200
     34 N01         12.5250     6.1110    49.3780 nv         1 ILU      -1.066000
     35 N02         13.2060    10.9480    40.4370 nu         1 ILU      -0.904200
     36 N03          5.6010     6.1130    41.8520 ns         1 ILU      -0.493900
     37 N04          8.3160     9.8220    47.4430 ns         1 ILU      -0.382700
     38 N05          7.1530     7.8920    48.4860 n1         1 ILU      -0.447000
     39 O01          9.5310    10.7400    45.7880 o          1 ILU      -0.526100
     40 O02          7.6240     5.1150    41.9540 o          1 ILU      -0.579100
     41 O03          4.7830     4.8040    38.5380 os         1 ILU      -0.446000
     42 O04          5.5270     5.9120    35.1700 os         1 ILU      -0.458000
     43 SI01        13.7320     8.7770    45.1000 sy         1 ILU       0.120500
     44 H01          6.1720     9.2060    45.6500 ha         1 ILU       0.143000
     45 H02          9.3530     6.6110    42.9140 ha         1 ILU       0.156000
     46 H03          9.4900     9.4270    42.4450 ha         1 ILU       0.131000
     47 H04         10.5630    10.5450    40.6310 ha         1 ILU       0.137000
     48 H05         14.3740    10.0710    42.5840 ha         1 ILU       0.121000
     49 H06          9.3060     6.6690    46.3180 ha         1 ILU       0.135000
     50 H07         10.0940     5.7680    48.3950 ha         1 ILU       0.142000
     51 H08         13.9760     7.4680    47.6810 ha         1 ILU       0.122000
     52 H11         13.3380    11.8860    38.6060 h1         1 ILU       0.062367
     53 H09         12.0470    10.6850    38.7000 h1         1 ILU       0.062367
     54 H10         11.8560    12.2590    39.4910 h1         1 ILU       0.062367
     55 H14         15.7370     7.3620    45.4860 h1         1 ILU       0.072367
     56 H15         14.7950     6.7540    44.1210 h1         1 ILU       0.072367
     57 H16         15.8290     8.1710    43.9240 h1         1 ILU       0.072367
     58 H18         14.8660    10.0810    46.8810 h1         1 ILU       0.072367
     59 H17         14.9900    10.9040    45.3270 h1         1 ILU       0.072367
     60 H19         13.4810    10.9710    46.2410 h1         1 ILU       0.072367
     61 H21          5.3300     7.5910    44.0510 ha         1 ILU       0.136000
     62 H24          3.9690     5.1730    41.0130 h1         1 ILU       0.077200
     63 H23          5.4520     4.2280    40.9940 h1         1 ILU       0.077200
     64 H26          6.4200     5.8320    39.3090 h1         1 ILU       0.028200
     65 H25          4.8950     6.7240    39.3110 h1         1 ILU       0.028200
     66 H27          4.0110     6.2470    37.2710 h1         1 ILU       0.061700
     67 H28          3.9560     4.5680    36.7210 h1         1 ILU       0.061700
     68 H29          6.4460     4.5720    36.4580 h1         1 ILU       0.025200
     69 H30          6.4990     6.2670    36.9570 h1         1 ILU       0.025200
     70 H31          7.2900     5.2730    34.2980 h1         1 ILU       0.019700
     71 H32          7.2640     6.9650    34.8000 h1         1 ILU       0.019700
     72 H33          7.0970     6.8360    32.4020 hc         1 ILU       0.048200
     73 H34          5.5970     7.4800    33.0290 hc         1 ILU       0.048200
     74 H36          4.5250     5.2230    32.7730 hc         1 ILU       0.045200
     75 H35          6.0430     4.5710    32.1930 hc         1 ILU       0.045200
     76 H37          5.9800     6.1670    30.2630 hc         1 ILU       0.046200
     77 H38          4.4500     6.8000    30.8360 hc         1 ILU       0.046200
     78 H40          3.4320     4.5170    30.6150 hc         1 ILU       0.051700
     79 H39          4.9450     3.9020    29.9840 hc         1 ILU       0.051700
     80 H41          3.2880     4.3990    28.2000 h1         1 ILU       0.064700
     81 H42          3.2320     6.0940    28.7060 h1         1 ILU       0.064700
     82 H12         11.9230     5.5820    49.9880 hn         1 ILU       0.511500
     83 H13         13.4720     6.2620    49.6870 hn         1 ILU       0.511500
     84 H20         14.2070    11.0480    40.5060 hn         1 ILU       0.510000
     85 H22          5.0610     6.9280    42.0900 hn         1 ILU       0.315500
     86 H43          8.6190    10.5610    48.0700 hn         1 ILU       0.359500
     87 CL1          5.2310     5.5710    27.5660 cl         1 ILU      -0.299000
     88 C19         15.1540     7.6590    44.6120 c3         1 ILU      -0.114600
     89 C20         14.3200    10.3300    45.9690 c3         1 ILU      -0.114600
@<TRIPOS>BOND
     1     1     3 1   
     2     1     6 1   
     3     1    12 2   
     4     2     3 ar  
     5     2     4 ar  
     6     2    19 1   
     7     3     5 ar  
     8     4    20 ar  
     9     4    44 1   
    10     5    21 ar  
    11     5    45 1   
    12     6     7 ar  
    13     6     8 ar  
    14     7     9 ar  
    15     7    46 1   
    16     8    10 ar  
    17     8    43 1   
    18     9    11 ar  
    19     9    47 1   
    20    10    11 ar  
    21    10    48 1   
    22    11    35 1   
    23    12    13 ar  
    24    12    14 ar  
    25    13    15 ar  
    26    13    49 1   
    27    14    16 ar  
    28    14    43 2   
    29    15    17 ar  
    30    15    50 1   
    31    16    17 ar  
    32    16    51 1   
    33    17    34 1   
    34    18    35 1   
    35    18    52 1   
    36    18    53 1   
    37    18    54 1   
    38    19    37 1   
    39    19    39 2   
    40    20    21 ar  
    41    20    61 1   
    42    21    22 1   
    43    22    36 1   
    44    22    40 2   
    45    23    24 1   
    46    23    36 1   
    47    23    62 1   
    48    23    63 1   
    49    24    41 1   
    50    24    64 1   
    51    24    65 1   
    52    25    26 1   
    53    25    41 1   
    54    25    66 1   
    55    25    67 1   
    56    26    42 1   
    57    26    68 1   
    58    26    69 1   
    59    27    28 1   
    60    27    42 1   
    61    27    70 1   
    62    27    71 1   
    63    28    29 1   
    64    28    72 1   
    65    28    73 1   
    66    29    30 1   
    67    29    74 1   
    68    29    75 1   
    69    30    31 1   
    70    30    76 1   
    71    30    77 1   
    72    31    32 1   
    73    31    78 1   
    74    31    79 1   
    75    32    80 1   
    76    32    81 1   
    77    32    87 1   
    78    33    37 1   
    79    33    38 3   
    80    34    82 1   
    81    34    83 1   
    82    35    84 1   
    83    36    85 1   
    84    37    86 1   
    85    43    88 1   
    86    43    89 1   
    87    55    88 1   
    88    56    88 1   
    89    57    88 1   
    90    58    89 1   
    91    59    89 1   
    92    60    89 1   
@<TRIPOS>SUBSTRUCTURE
     1 ILU         1 TEMP              0 ****  ****    0 ROOT
