@<TRIPOS>MOLECULE
ILV
   45    47     1     0     0
SMALL
bcc


@<TRIPOS>ATOM
      1 CG2          3.5920    -1.3080    -0.7420 c3         1 ILV      -0.087100
      2 CB           2.2930    -1.9770    -0.2960 c3         1 ILV      -0.061700
      3 CG1          2.5940    -2.9990     0.7930 c3         1 ILV      -0.087100
      4 CA           1.2660    -0.9080     0.1330 c3         1 ILV       0.159500
      5 C            0.9190    -0.0800    -1.1080 c          1 ILV       0.701500
      6 O            0.6310    -0.6420    -2.1570 o          1 ILV      -0.634500
      7 NAO          0.9700     1.2600    -1.0390 ns         1 ILV      -0.553900
      8 CAQ          1.0890     2.1530     0.1020 c3         1 ILV       0.124700
      9 CAS          2.5170     2.3220     0.6010 c3         1 ILV       0.125400
     10 OAV          3.3270     2.7580    -0.4610 oh         1 ILV      -0.588800
     11 CAJ          0.1320     1.8250     1.2610 c3         1 ILV      -0.017200
     12 CAI         -1.2400     1.4630     0.7960 cc         1 ILV      -0.148400
     13 CAE         -1.7430     0.1990     0.3240 ca         1 ILV      -0.108800
     14 CAH         -2.2630     2.3570     0.6410 cd         1 ILV      -0.108100
     15 NAG         -3.3550     1.7430     0.1070 na         1 ILV      -0.169400
     16 CAD         -3.0740     0.4250    -0.1010 ca         1 ILV      -0.044200
     17 CAC         -3.8910    -0.5810    -0.6150 ca         1 ILV      -0.149000
     18 CAB         -3.3510    -1.8460    -0.7070 ca         1 ILV      -0.103000
     19 CAA         -2.0370    -2.1010    -0.2910 ca         1 ILV      -0.124000
     20 CAF         -1.2220    -1.1100     0.2240 ca         1 ILV       0.159600
     21 N            0.0560    -1.4880     0.7200 nh         1 ILV      -0.666000
     22 CAL          0.0480    -1.6020     2.1680 c3         1 ILV       0.185100
     23 H1           4.0720    -0.7940     0.0950 hc         1 ILV       0.032867
     24 H2           4.2970    -2.0520    -1.1150 hc         1 ILV       0.032867
     25 H3           3.4460    -0.5720    -1.5330 hc         1 ILV       0.032867
     26 H4           1.8600    -2.5120    -1.1440 hc         1 ILV       0.080700
     27 H5           3.0200    -2.5300     1.6830 hc         1 ILV       0.032867
     28 H6           1.7030    -3.5520     1.0880 hc         1 ILV       0.032867
     29 H7           3.3220    -3.7240     0.4260 hc         1 ILV       0.032867
     30 H8           1.7630    -0.2710     0.8720 h1         1 ILV       0.032700
     31 H9           0.7210     1.7130    -1.9060 hn         1 ILV       0.316500
     32 H10          0.7730     3.1220    -0.2920 h1         1 ILV       0.058700
     33 H11          2.4950     3.0490     1.4240 h1         1 ILV       0.022200
     34 H12          2.8840     1.3800     1.0270 h1         1 ILV       0.022200
     35 H13          4.2380     2.7760    -0.1550 ho         1 ILV       0.406000
     36 H14          0.5550     1.0460     1.8950 hc         1 ILV       0.049200
     37 H15          0.0800     2.7150     1.8930 hc         1 ILV       0.049200
     38 H16         -2.2840     3.4110     0.8740 h4         1 ILV       0.159000
     39 H17         -4.2350     2.1910    -0.0860 hn         1 ILV       0.300700
     40 H18         -4.9070    -0.3730    -0.9270 ha         1 ILV       0.131000
     41 H19         -3.9500    -2.6580    -1.1010 ha         1 ILV       0.132000
     42 H20         -1.6350    -3.1040    -0.3620 ha         1 ILV       0.144000
     43 H21         -0.2550    -0.6810     2.6840 h1         1 ILV       0.031033
     44 H22         -0.6440    -2.3880     2.4730 h1         1 ILV       0.031033
     45 H23          1.0330    -1.8740     2.5390 h1         1 ILV       0.031033
@<TRIPOS>BOND
     1     1     2 1   
     2     1    23 1   
     3     1    24 1   
     4     1    25 1   
     5     2     3 1   
     6     2     4 1   
     7     2    26 1   
     8     3    27 1   
     9     3    28 1   
    10     3    29 1   
    11     4     5 1   
    12     4    21 1   
    13     4    30 1   
    14     5     6 2   
    15     5     7 1   
    16     7     8 1   
    17     7    31 1   
    18     8     9 1   
    19     8    11 1   
    20     8    32 1   
    21     9    10 1   
    22     9    33 1   
    23     9    34 1   
    24    10    35 1   
    25    11    12 1   
    26    11    36 1   
    27    11    37 1   
    28    12    13 1   
    29    12    14 2   
    30    13    16 ar  
    31    13    20 ar  
    32    14    15 1   
    33    14    38 1   
    34    15    16 1   
    35    15    39 1   
    36    16    17 ar  
    37    17    18 ar  
    38    17    40 1   
    39    18    19 ar  
    40    18    41 1   
    41    19    20 ar  
    42    19    42 1   
    43    20    21 1   
    44    21    22 1   
    45    22    43 1   
    46    22    44 1   
    47    22    45 1   
@<TRIPOS>SUBSTRUCTURE
     1 ILV         1 TEMP              0 ****  ****    0 ROOT
