@<TRIPOS>MOLECULE
ILV
   45    47     1     0     0
SMALL
No Charge or Current Charge


@<TRIPOS>ATOM
      1 CG2          3.5250    -1.5270    -0.9770 c3         1 ILV      -0.087100
      2 CB           2.1980    -2.0570    -0.3710 c3         1 ILV      -0.061700
      3 CG1          2.5130    -3.1130     0.7190 c3         1 ILV      -0.087100
      4 CA           1.2660    -0.8870     0.0990 c3         1 ILV       0.159500
      5 C            0.9300     0.0380    -1.1360 c          1 ILV       0.559000
      6 O            0.5950    -0.4160    -2.2240 o          1 ILV      -0.559000
      7 NAO          1.0940     1.4080    -1.0360 ns         1 ILV      -0.486900
      8 CAQ          1.1140     2.2500     0.1800 c3         1 ILV       0.124700
      9 CAS          2.5390     2.4250     0.7830 c3         1 ILV       0.148600
     10 OAV          3.4770     2.8550    -0.2170 oh         1 ILV      -0.651000
     11 CAJ          0.0540     1.8860     1.2580 c3         1 ILV      -0.017200
     12 CAI         -1.3080     1.5290     0.7090 cc         1 ILV      -0.148400
     13 CAE         -1.8130     0.2250     0.3220 ca         1 ILV      -0.108800
     14 CAH         -2.3320     2.4320     0.4410 cd         1 ILV      -0.158100
     15 NAG         -3.4430     1.7500    -0.1020 na         1 ILV      -0.219700
     16 CAD         -3.0820     0.4180    -0.1600 ca         1 ILV      -0.044200
     17 CAC         -3.8640    -0.6430    -0.6360 ca         1 ILV      -0.131000
     18 CAB         -3.3160    -1.9390    -0.6100 ca         1 ILV      -0.085000
     19 CAA         -2.0110    -2.1470    -0.1090 ca         1 ILV      -0.106000
     20 CAF         -1.2380    -1.0700     0.3690 ca         1 ILV       0.298000
     21 N            0.0540    -1.3290     0.8750 nh         1 ILV      -0.804400
     22 CAL          0.1990    -1.5900     2.3250 c3         1 ILV       0.185100
     23 H1           4.0920    -0.9580    -0.2300 hc         1 ILV       0.032867
     24 H2           4.1520    -2.3570    -1.3230 hc         1 ILV       0.032867
     25 H3           3.3450    -0.8740    -1.8390 hc         1 ILV       0.032867
     26 H4           1.6600    -2.5770    -1.1710 hc         1 ILV       0.080700
     27 H5           2.9700    -2.6450     1.5990 hc         1 ILV       0.032867
     28 H6           1.6050    -3.6420     1.0310 hc         1 ILV       0.032867
     29 H7           3.2090    -3.8690     0.3360 hc         1 ILV       0.032867
     30 H8           1.8790    -0.2850     0.7760 h1         1 ILV       0.032700
     31 H9           0.9720     1.8990    -1.9120 hn         1 ILV       0.316500
     32 H10          0.8220     3.2480    -0.1740 h1         1 ILV       0.058700
     33 H11          2.4900     3.1670     1.5910 h1         1 ILV       0.022200
     34 H12          2.8760     1.4820     1.2310 h1         1 ILV       0.022200
     35 H13          4.3470     2.9590     0.2280 ho         1 ILV       0.445000
     36 H14          0.4310     1.0890     1.9020 hc         1 ILV       0.049200
     37 H15         -0.0520     2.7490     1.9270 hc         1 ILV       0.049200
     38 H16         -2.3440     3.5100     0.5870 h4         1 ILV       0.209000
     39 H17         -4.3280     2.1550    -0.3950 hn         1 ILV       0.351000
     40 H18         -4.8680    -0.4720    -1.0160 ha         1 ILV       0.113000
     41 H19         -3.8980    -2.7830    -0.9730 ha         1 ILV       0.114000
     42 H20         -1.5960    -3.1500    -0.0870 ha         1 ILV       0.126000
     43 H21         -0.5280    -0.9940     2.8930 h1         1 ILV       0.031033
     44 H22          0.0220    -2.6510     2.5420 h1         1 ILV       0.031033
     45 H23          1.2020    -1.3200     2.6790 h1         1 ILV       0.031033
@<TRIPOS>BOND
     1     1     2 1   
     2     1    23 1   
     3     1    24 1   
     4     1    25 1   
     5     2     3 1   
     6     2     4 1   
     7     2    26 1   
     8     3    27 1   
     9     3    28 1   
    10     3    29 1   
    11     4     5 1   
    12     4    21 1   
    13     4    30 1   
    14     5     6 2   
    15     5     7 1   
    16     7     8 1   
    17     7    31 1   
    18     8     9 1   
    19     8    11 1   
    20     8    32 1   
    21     9    10 1   
    22     9    33 1   
    23     9    34 1   
    24    10    35 1   
    25    11    12 1   
    26    11    36 1   
    27    11    37 1   
    28    12    13 1   
    29    12    14 2   
    30    13    16 ar  
    31    13    20 ar  
    32    14    15 1   
    33    14    38 1   
    34    15    16 1   
    35    15    39 1   
    36    16    17 ar  
    37    17    18 ar  
    38    17    40 1   
    39    18    19 ar  
    40    18    41 1   
    41    19    20 ar  
    42    19    42 1   
    43    20    21 1   
    44    21    22 1   
    45    22    43 1   
    46    22    44 1   
    47    22    45 1   
@<TRIPOS>SUBSTRUCTURE
     1 ILV         1 TEMP              0 ****  ****    0 ROOT
