@<TRIPOS>MOLECULE
ILY
   32    31     1     0     0
SMALL
No Charge or Current Charge


@<TRIPOS>ATOM
      1 CH1         -5.1300     1.3040    -0.0980 c3         1 ILY      -0.105600
      2 C1          -4.7350    -0.1460     0.2600 c3         1 ILY       0.175500
      3 CH2         -5.7540    -1.1640    -0.2900 c3         1 ILY      -0.105600
      4 NZ          -3.4040    -0.4750    -0.2840 n7         1 ILY      -0.869400
      5 CE          -2.2440     0.1720     0.3610 c3         1 ILY       0.159800
      6 CD          -0.9320    -0.3550    -0.2530 c3         1 ILY      -0.078400
      7 CG           0.3260     0.2790     0.3830 c3         1 ILY      -0.072400
      8 CB           1.6480    -0.2490    -0.2300 c3         1 ILY      -0.050400
      9 CA           2.9360     0.3190     0.4270 c3         1 ILY       0.013500
     10 N            3.0420     1.8100     0.2130 n8         1 ILY      -0.997200
     11 C            4.1960    -0.5370    -0.0120 c          1 ILY       0.692000
     12 O            4.6620    -0.3580    -1.1310 o          1 ILY      -0.736500
     13 OXT          4.7260    -1.2590     0.8210 o          1 ILY      -0.736500
     14 H1          -6.1440     1.5220     0.2590 hc         1 ILY       0.031867
     15 H2          -4.4530     2.0270     0.3720 hc         1 ILY       0.031867
     16 H3          -5.1090     1.4630    -1.1830 hc         1 ILY       0.031867
     17 H4          -4.7290    -0.2430     1.3550 h1         1 ILY       0.053700
     18 H5          -5.4700    -2.1860    -0.0100 hc         1 ILY       0.031867
     19 H6          -6.7520    -0.9670     0.1200 hc         1 ILY       0.031867
     20 H7          -5.8170    -1.1090    -1.3840 hc         1 ILY       0.031867
     21 H8          -2.2840     1.2620     0.2290 h1         1 ILY       0.023200
     22 H9          -0.8880    -1.4440    -0.1290 hc         1 ILY       0.039200
     23 H10         -0.9300    -0.1530    -1.3310 hc         1 ILY       0.039200
     24 H11          0.2740     1.3670     0.2630 hc         1 ILY       0.035200
     25 H12          0.3240     0.0750     1.4610 hc         1 ILY       0.035200
     26 H13          1.6610    -1.3410    -0.1270 hc         1 ILY       0.037700
     27 H14          1.6620    -0.0380    -1.3070 hc         1 ILY       0.037700
     28 H15          2.8340     0.1690     1.5110 h1         1 ILY       0.035700
     29 H16          3.8740     2.1590     0.7040 hn         1 ILY       0.379000
     30 H17          3.2690     1.9760    -0.7750 hn         1 ILY       0.379000
     31 H18         -3.3960    -0.2440    -1.2830 hn         1 ILY       0.402000
     32 H19         -2.2430    -0.0370     1.4400 h1         1 ILY       0.023200
@<TRIPOS>BOND
     1     1     2 1   
     2     1    14 1   
     3     1    15 1   
     4     1    16 1   
     5     2     3 1   
     6     2     4 1   
     7     2    17 1   
     8     3    18 1   
     9     3    19 1   
    10     3    20 1   
    11     4     5 1   
    12     4    31 1   
    13     5     6 1   
    14     5    21 1   
    15     5    32 1   
    16     6     7 1   
    17     6    22 1   
    18     6    23 1   
    19     7     8 1   
    20     7    24 1   
    21     7    25 1   
    22     8     9 1   
    23     8    26 1   
    24     8    27 1   
    25     9    10 1   
    26     9    11 1   
    27     9    28 1   
    28    10    29 1   
    29    10    30 1   
    30    11    12 1   
    31    11    13 1   
@<TRIPOS>SUBSTRUCTURE
     1 ILY         1 TEMP              0 ****  ****    0 ROOT
