@<TRIPOS>MOLECULE
ILY
   32    31     1     0     0
SMALL
abcg2


@<TRIPOS>ATOM
      1 CH1         -5.0580     1.3070    -0.1080 c3         1 ILY      -0.105600
      2 C1          -4.6510    -0.1200     0.2540 c3         1 ILY       0.175500
      3 CH2         -5.6930    -1.1130    -0.2480 c3         1 ILY      -0.105600
      4 NZ          -3.3540    -0.5290    -0.2560 n7         1 ILY      -0.869400
      5 CE          -2.2160     0.1720     0.2950 c3         1 ILY       0.159800
      6 CD          -0.9090    -0.3980    -0.2440 c3         1 ILY      -0.078400
      7 CG           0.3160     0.2600     0.3740 c3         1 ILY      -0.072400
      8 CB           1.6210    -0.2960    -0.1780 c3         1 ILY      -0.050400
      9 CA           2.8760     0.3320     0.4370 c3         1 ILY       0.013500
     10 N            2.8860     1.7730     0.2110 n8         1 ILY      -0.997200
     11 C            4.1300    -0.4280    -0.0580 c          1 ILY       0.692000
     12 O            4.9280     0.1870    -0.7960 o          1 ILY      -0.736500
     13 OXT          4.2470    -1.6090     0.3300 o          1 ILY      -0.736500
     14 H1          -6.0040     1.5740     0.3620 hc         1 ILY       0.031867
     15 H2          -4.3150     2.0380     0.2230 hc         1 ILY       0.031867
     16 H3          -5.1780     1.4110    -1.1890 hc         1 ILY       0.031867
     17 H4          -4.5950    -0.2000     1.3460 h1         1 ILY       0.053700
     18 H5          -5.4520    -2.1280     0.0650 hc         1 ILY       0.031867
     19 H6          -6.6840    -0.8630     0.1350 hc         1 ILY       0.031867
     20 H7          -5.7480    -1.1010    -1.3390 hc         1 ILY       0.031867
     21 H8          -2.2380     1.2600     0.1160 h1         1 ILY       0.023200
     22 H9          -0.8900    -1.4750    -0.0520 hc         1 ILY       0.039200
     23 H10         -0.8720    -0.2790    -1.3330 hc         1 ILY       0.039200
     24 H11          0.2770     1.3400     0.2140 hc         1 ILY       0.035200
     25 H12          0.2950     0.1130     1.4600 hc         1 ILY       0.035200
     26 H13          1.6550    -1.3760    -0.0090 hc         1 ILY       0.037700
     27 H14          1.6450    -0.1610    -1.2680 hc         1 ILY       0.037700
     28 H15          2.8120     0.1800     1.5240 h1         1 ILY       0.035700
     29 H16          3.6680     2.1640     0.7250 hn         1 ILY       0.379000
     30 H17          3.1320     1.9330    -0.7590 hn         1 ILY       0.379000
     31 H18         -3.3420    -0.4170    -1.2650 hn         1 ILY       0.402000
     32 H19         -2.2670     0.0450     1.3860 h1         1 ILY       0.023200
@<TRIPOS>BOND
     1     1     2 1   
     2     1    14 1   
     3     1    15 1   
     4     1    16 1   
     5     2     3 1   
     6     2     4 1   
     7     2    17 1   
     8     3    18 1   
     9     3    19 1   
    10     3    20 1   
    11     4     5 1   
    12     4    31 1   
    13     5     6 1   
    14     5    21 1   
    15     5    32 1   
    16     6     7 1   
    17     6    22 1   
    18     6    23 1   
    19     7     8 1   
    20     7    24 1   
    21     7    25 1   
    22     8     9 1   
    23     8    26 1   
    24     8    27 1   
    25     9    10 1   
    26     9    11 1   
    27     9    28 1   
    28    10    29 1   
    29    10    30 1   
    30    11    12 1   
    31    11    13 1   
@<TRIPOS>SUBSTRUCTURE
     1 ILY         1 TEMP              0 ****  ****    0 ROOT
