@<TRIPOS>MOLECULE
IM0
  107   113     1     0     0
SMALL
No Charge or Current Charge


@<TRIPOS>ATOM
      1 C          163.7440   164.6750   167.6350 ca         1 IM0       0.149100
      2 C1         163.1350   165.2510   166.5090 ca         1 IM0      -0.191000
      3 C2         162.6240   164.4300   165.4880 ca         1 IM0      -0.051000
      4 C3         162.7220   163.0290   165.5930 ca         1 IM0      -0.085000
      5 C4         162.2110   162.2040   164.5720 ca         1 IM0      -0.052000
      6 C5         162.3050   160.7930   164.6670 ca         1 IM0      -0.162600
      7 C6         161.7660   159.8700   163.5870 c          1 IM0       0.620700
      8 C7         160.5760   159.9950   161.3070 ca         1 IM0       0.006000
      9 C8         159.9530   160.9210   160.4520 ca         1 IM0      -0.159500
     10 C9         159.3450   160.5100   159.2540 ca         1 IM0      -0.041500
     11 C10        159.3520   159.1450   158.8780 ca         1 IM0      -0.186600
     12 C11        158.7110   158.6550   157.5990 c          1 IM0       0.611700
     13 C12        157.3500   159.3080   155.5660 c3         1 IM0       0.038700
     14 N          161.1690   160.4960   162.4980 ns         1 IM0      -0.148000
     15 C14        155.5130   160.8500   156.4380 cc         1 IM0       0.198300
     16 C15        154.3060   160.3270   156.7820 cd         1 IM0      -0.191000
     17 C16        158.2190   158.9450   154.3190 c          1 IM0       0.609100
     18 N1         158.1600   159.6090   156.7730 ns         1 IM0      -0.524900
     19 C17        160.6940   158.8800   153.6040 ca         1 IM0      -0.046000
     20 C18        160.5600   158.5170   152.2470 ca         1 IM0      -0.117000
     21 C19        161.7240   158.3380   151.4780 ca         1 IM0      -0.072000
     22 O1         178.3960   158.8050   150.4750 o          1 IM0      -0.712000
     23 C23        167.2390   158.2900   150.2040 ca         1 IM0      -0.178000
     24 C24        168.6070   158.2550   149.8930 ca         1 IM0      -0.010000
     25 C25        169.5980   158.4290   150.8890 ca         1 IM0      -0.194600
     26 C26        171.0570   158.3950   150.4460 c          1 IM0       0.624700
     27 C28        174.1650   157.9250   150.2970 ca         1 IM0      -0.182000
     28 C29        175.5690   157.8630   150.3110 ca         1 IM0      -0.047000
     29 C30        176.2980   158.3720   151.4020 ca         1 IM0      -0.170600
     30 O          164.2400   165.4670   168.6260 oh         1 IM0      -0.529100
     31 C13        156.3840   160.4820   155.2680 c3         1 IM0      -0.106700
     32 C20        162.9950   158.5230   152.0650 ca         1 IM0       0.245500
     33 C22        166.8090   158.4790   151.5300 ca         1 IM0       0.024000
     34 C27        173.4590   158.5170   151.3660 ca         1 IM0      -0.028000
     35 C32        175.6000   158.9600   152.4730 ca         1 IM0       0.179100
     36 C33        174.1940   159.0440   152.4540 ca         1 IM0      -0.108900
     37 C35        169.1580   158.6290   152.2240 ca         1 IM0       0.179100
     38 C36        167.7810   158.6260   152.5390 ca         1 IM0      -0.073900
     39 C37        167.4770   157.7030   154.7980 c3         1 IM0       0.146600
     40 C38        166.4660   156.5850   154.4200 c3         1 IM0       0.116800
     41 C39        161.9980   159.0470   154.1150 ca         1 IM0       0.286900
     42 C40        159.9800   158.2170   159.7370 ca         1 IM0      -0.041500
     43 C41        160.5860   158.6350   160.9350 ca         1 IM0      -0.159500
     44 C42        162.9230   160.2340   165.8110 ca         1 IM0      -0.053000
     45 C43        163.4320   161.0570   166.8290 ca         1 IM0      -0.113000
     46 C44        163.3350   162.4540   166.7250 ca         1 IM0       0.021000
     47 C45        163.8440   163.2800   167.7440 ca         1 IM0      -0.154000
     48 N2         153.9690   161.0220   157.9260 na         1 IM0      -0.005200
     49 N3         154.9530   161.9290   158.2370 nd         1 IM0      -0.189800
     50 N4         155.8860   161.8170   157.3260 nc         1 IM0      -0.385000
     51 N5         159.5920   159.0930   154.4830 ns         1 IM0      -0.131000
     52 N6         165.4410   158.5390   151.9110 ns         1 IM0      -0.128000
     53 N7         172.0360   158.5510   151.4180 ns         1 IM0      -0.125000
     54 N8         166.4830   155.4400   155.3670 n8         1 IM0      -1.002200
     55 N9         163.1200   158.8770   153.3790 nb         1 IM0      -0.647000
     56 O10        158.6850   157.4730   157.2910 o          1 IM0      -0.589100
     57 O11        161.8590   158.6520   163.6950 o          1 IM0      -0.563100
     58 O2         178.3370   157.5930   152.2560 o          1 IM0      -0.712000
     59 O3         176.2560   159.4900   153.5420 oh         1 IM0      -0.486100
     60 O4         173.5550   159.6410   153.5240 os         1 IM0      -0.378100
     61 O5         171.3360   158.2460   149.2600 o          1 IM0      -0.604100
     62 O6         170.0200   158.8720   153.2480 oh         1 IM0      -0.536100
     63 O7         167.3720   158.7940   153.8510 os         1 IM0      -0.372100
     64 O8         164.2080   157.9980   150.0350 o          1 IM0      -0.579100
     65 O9         157.7010   158.5510   153.2790 o          1 IM0      -0.567100
     66 H1         163.0540   166.3320   166.4170 ha         1 IM0       0.114000
     67 H2         162.1540   164.8850   164.6180 ha         1 IM0       0.114000
     68 H3         161.7460   162.6780   163.7110 ha         1 IM0       0.112000
     69 H4         159.9340   161.9760   160.7190 ha         1 IM0       0.132000
     70 H5         158.8710   161.2670   158.6340 ha         1 IM0       0.131000
     71 H6         156.7460   158.4160   155.7800 h1         1 IM0       0.092700
     72 H7         161.1520   161.5040   162.5620 hn         1 IM0       0.154000
     73 H8         153.6960   159.5550   156.3290 h4         1 IM0       0.176000
     74 H9         158.1740   160.5640   157.1110 hn         1 IM0       0.344500
     75 H10        159.5910   158.3750   151.7770 ha         1 IM0       0.157000
     76 H11        161.6410   158.0580   150.4300 ha         1 IM0       0.150000
     77 H12        166.5280   158.1730   149.3920 ha         1 IM0       0.148000
     78 H13        168.8920   158.1030   148.8530 ha         1 IM0       0.146000
     79 H14        173.6430   157.4860   149.4530 ha         1 IM0       0.126000
     80 H15        176.0960   157.4010   149.4770 ha         1 IM0       0.137000
     81 H16        164.0820   166.4040   168.3810 ho         1 IM0       0.467000
     82 H17        156.9650   161.3570   154.9510 hc         1 IM0       0.073700
     83 H18        155.7460   160.2150   154.4170 hc         1 IM0       0.073700
     84 H19        172.4710   161.2500   154.3070 h1         1 IM0       0.028367
     85 H20        173.6330   161.6760   153.0300 h1         1 IM0       0.028367
     86 H21        172.1060   160.8680   152.6120 h1         1 IM0       0.028367
     87 H22        168.4920   157.2880   154.8150 h1         1 IM0       0.060700
     88 H23        167.2430   158.0640   155.8090 h1         1 IM0       0.060700
     89 H24        165.4520   157.0090   154.4080 h1         1 IM0       0.041200
     90 H25        166.6950   156.2080   153.4140 h1         1 IM0       0.041200
     91 H26        162.1510   159.3290   155.1560 h4         1 IM0       0.021100
     92 H27        160.0050   157.1600   159.4770 ha         1 IM0       0.131000
     93 H28        161.0630   157.8820   161.5530 ha         1 IM0       0.132000
     94 H29        163.0120   159.1540   165.9170 ha         1 IM0       0.139000
     95 H30        163.9030   160.6050   167.6990 ha         1 IM0       0.124000
     96 H31        164.3170   162.8430   168.6200 ha         1 IM0       0.135000
     97 H32        153.1320   160.9240   158.4960 hn         1 IM0       0.383000
     98 H33        159.8580   159.4140   155.4050 hn         1 IM0       0.166000
     99 H34        165.3030   158.7910   152.8820 hn         1 IM0       0.193000
    100 H35        171.6710   158.7180   152.3470 hn         1 IM0       0.173000
    101 H36        165.8130   154.7290   155.0480 hn         1 IM0       0.397500
    102 H37        167.3890   154.9580   155.3030 hn         1 IM0       0.397500
    103 H40        175.5520   159.8110   154.1450 ho         1 IM0       0.443000
    104 H41        169.4610   159.1190   154.0160 ho         1 IM0       0.485000
    105 C21        164.2550   158.3250   151.2200 c          1 IM0       0.518600
    106 C31        177.7950   158.2800   151.4020 c          1 IM0       0.722600
    107 C34        172.9090   160.9180   153.3570 c3         1 IM0       0.138900
@<TRIPOS>BOND
     1     1     2 ar  
     2     1    30 1   
     3     1    47 ar  
     4     2     3 ar  
     5     2    66 1   
     6     3     4 ar  
     7     3    67 1   
     8     4     5 ar  
     9     4    46 ar  
    10     5     6 ar  
    11     5    68 1   
    12     6     7 1   
    13     6    44 ar  
    14     7    14 1   
    15     7    57 2   
    16     8     9 ar  
    17     8    14 1   
    18     8    43 ar  
    19     9    10 ar  
    20     9    69 1   
    21    10    11 ar  
    22    10    70 1   
    23    11    12 1   
    24    11    42 ar  
    25    12    18 1   
    26    12    56 2   
    27    13    17 1   
    28    13    18 1   
    29    13    31 1   
    30    13    71 1   
    31    14    72 1   
    32    15    16 2   
    33    15    31 1   
    34    15    50 1   
    35    16    48 1   
    36    16    73 1   
    37    17    51 1   
    38    17    65 2   
    39    18    74 1   
    40    19    20 ar  
    41    19    41 ar  
    42    19    51 1   
    43    20    21 ar  
    44    20    75 1   
    45    21    32 ar  
    46    21    76 1   
    47    22   106 1   
    48    23    24 ar  
    49    23    33 ar  
    50    23    77 1   
    51    24    25 ar  
    52    24    78 1   
    53    25    26 1   
    54    25    37 ar  
    55    26    53 1   
    56    26    61 2   
    57    27    28 ar  
    58    27    34 ar  
    59    27    79 1   
    60    28    29 ar  
    61    28    80 1   
    62    29    35 ar  
    63    29   106 1   
    64    30    81 1   
    65    31    82 1   
    66    31    83 1   
    67    32    55 ar  
    68    32   105 1   
    69    33    38 ar  
    70    33    52 1   
    71    34    36 ar  
    72    34    53 1   
    73    35    36 ar  
    74    35    59 1   
    75    36    60 1   
    76    37    38 ar  
    77    37    62 1   
    78    38    63 1   
    79    39    40 1   
    80    39    63 1   
    81    39    87 1   
    82    39    88 1   
    83    40    54 1   
    84    40    89 1   
    85    40    90 1   
    86    41    55 ar  
    87    41    91 1   
    88    42    43 ar  
    89    42    92 1   
    90    43    93 1   
    91    44    45 ar  
    92    44    94 1   
    93    45    46 ar  
    94    45    95 1   
    95    46    47 ar  
    96    47    96 1   
    97    48    49 1   
    98    48    97 1   
    99    49    50 2   
   100    51    98 1   
   101    52    99 1   
   102    52   105 1   
   103    53   100 1   
   104    54   101 1   
   105    54   102 1   
   106    58   106 1   
   107    59   103 1   
   108    60   107 1   
   109    62   104 1   
   110    64   105 2   
   111    84   107 1   
   112    85   107 1   
   113    86   107 1   
@<TRIPOS>SUBSTRUCTURE
     1 IM0         1 TEMP              0 ****  ****    0 ROOT
