@<TRIPOS>MOLECULE
IM0
  107   113     1     0     0
SMALL
abcg2


@<TRIPOS>ATOM
      1 C          162.2040   163.6230   169.1130 ca         1 IM0       0.149100
      2 C1         160.8590   163.4140   168.7240 ca         1 IM0      -0.191000
      3 C2         160.5720   162.8150   167.5300 ca         1 IM0      -0.051000
      4 C3         161.6030   162.3930   166.6610 ca         1 IM0      -0.085000
      5 C4         161.3270   161.7660   165.4270 ca         1 IM0      -0.052000
      6 C5         162.3440   161.3430   164.6070 ca         1 IM0      -0.162600
      7 C6         162.1100   160.6080   163.3330 c          1 IM0       0.620700
      8 C7         160.4820   160.3860   161.4820 ca         1 IM0       0.006000
      9 C8         159.5440   161.1360   160.7680 ca         1 IM0      -0.159500
     10 C9         159.0280   160.6740   159.5730 ca         1 IM0      -0.041500
     11 C10        159.4280   159.4420   159.0560 ca         1 IM0      -0.186600
     12 C11        158.9120   158.8900   157.7750 c          1 IM0       0.611700
     13 C12        157.7760   159.3450   155.6780 c3         1 IM0       0.038700
     14 N          160.9560   160.9230   162.6780 ns         1 IM0      -0.148000
     15 C14        156.2440   161.3450   155.7540 cc         1 IM0       0.198300
     16 C15        154.8730   161.3800   155.7390 cd         1 IM0      -0.191000
     17 C16        158.6790   158.5720   154.7160 c          1 IM0       0.609100
     18 N1         158.4630   159.7860   156.8660 ns         1 IM0      -0.524900
     19 C17        161.0050   158.5690   153.8760 ca         1 IM0      -0.046000
     20 C18        160.9100   157.5760   152.9030 ca         1 IM0      -0.117000
     21 C19        162.0360   157.2680   152.1590 ca         1 IM0      -0.072000
     22 O1         177.9760   157.0840   149.3370 o          1 IM0      -0.712000
     23 C23        167.1730   157.6450   150.2680 ca         1 IM0      -0.178000
     24 C24        168.4950   157.6170   149.8800 ca         1 IM0      -0.010000
     25 C25        169.5150   158.2140   150.6200 ca         1 IM0      -0.194600
     26 C26        170.9020   158.0890   150.0730 c          1 IM0       0.624700
     27 C28        173.8620   157.3940   149.6800 ca         1 IM0      -0.182000
     28 C29        175.2380   157.2570   149.6330 ca         1 IM0      -0.047000
     29 C30        176.1060   157.7540   150.6020 ca         1 IM0      -0.170600
     30 O          162.5130   164.2050   170.2830 oh         1 IM0      -0.529100
     31 C13        157.1910   160.5520   154.9260 c3         1 IM0      -0.106700
     32 C20        163.2190   157.9470   152.3990 ca         1 IM0       0.245500
     33 C22        166.8180   158.2750   151.4640 ca         1 IM0       0.024000
     34 C27        173.2880   158.1010   150.7360 ca         1 IM0      -0.028000
     35 C32        175.5240   158.4690   151.6580 ca         1 IM0       0.179100
     36 C33        174.1380   158.6530   151.6960 ca         1 IM0      -0.108900
     37 C35        169.1490   158.8780   151.7970 ca         1 IM0       0.179100
     38 C36        167.8220   158.8710   152.2320 ca         1 IM0      -0.073900
     39 C37        167.7640   158.7940   154.6070 c3         1 IM0       0.146600
     40 C38        166.7000   157.7610   154.9370 c3         1 IM0       0.116800
     41 C39        162.2510   159.1930   154.0440 ca         1 IM0       0.286900
     42 C40        160.3330   158.6830   159.7910 ca         1 IM0      -0.041500
     43 C41        160.8660   159.1390   160.9830 ca         1 IM0      -0.159500
     44 C42        163.6880   161.5380   165.0120 ca         1 IM0      -0.053000
     45 C43        163.9800   162.1600   166.1890 ca         1 IM0      -0.113000
     46 C44        162.9490   162.6020   167.0550 ca         1 IM0       0.021000
     47 C45        163.2290   163.2240   168.2870 ca         1 IM0      -0.154000
     48 N2         154.5660   162.2550   156.7070 na         1 IM0      -0.005200
     49 N3         155.6430   162.7360   157.2920 nd         1 IM0      -0.189800
     50 N4         156.6620   162.1950   156.7220 nc         1 IM0      -0.385000
     51 N5         159.9700   158.9970   154.6920 ns         1 IM0      -0.131000
     52 N6         165.5190   158.3780   151.9380 ns         1 IM0      -0.128000
     53 N7         171.9190   158.2580   150.9560 ns         1 IM0      -0.125000
     54 N8         167.0400   157.1590   156.2170 n8         1 IM0      -1.002200
     55 N9         163.3120   158.8900   153.3320 nb         1 IM0      -0.647000
     56 O10        158.9130   157.6920   157.5350 o          1 IM0      -0.589100
     57 O11        162.9180   159.7970   162.9190 o          1 IM0      -0.563100
     58 O2         178.3120   157.6070   151.4750 o          1 IM0      -0.712000
     59 O3         176.2650   159.0130   152.6390 oh         1 IM0      -0.486100
     60 O4         173.6140   159.3730   152.7390 os         1 IM0      -0.378100
     61 O5         171.0770   157.7980   148.9010 o          1 IM0      -0.604100
     62 O6         170.0840   159.5290   152.5110 oh         1 IM0      -0.536100
     63 O7         167.5100   159.5180   153.3920 os         1 IM0      -0.372100
     64 O8         164.4340   156.7520   150.7550 o          1 IM0      -0.579100
     65 O9         158.2240   157.7090   153.9940 o          1 IM0      -0.567100
     66 H1         160.0550   163.7310   169.3780 ha         1 IM0       0.114000
     67 H2         159.5400   162.6590   167.2410 ha         1 IM0       0.114000
     68 H3         160.2870   161.5990   165.1680 ha         1 IM0       0.112000
     69 H4         159.2160   162.0950   161.1530 ha         1 IM0       0.132000
     70 H5         158.2910   161.2870   159.0690 ha         1 IM0       0.131000
     71 H6         156.9610   158.6660   155.9430 h1         1 IM0       0.092700
     72 H7         160.4600   161.7380   163.0060 hn         1 IM0       0.154000
     73 H8         154.1340   160.8760   155.1390 h4         1 IM0       0.176000
     74 H9         158.4550   160.7720   157.0810 hn         1 IM0       0.344500
     75 H10        159.9880   157.0510   152.7190 ha         1 IM0       0.157000
     76 H11        161.9850   156.5030   151.3980 ha         1 IM0       0.150000
     77 H12        166.4270   157.1800   149.6460 ha         1 IM0       0.148000
     78 H13        168.7520   157.1150   148.9570 ha         1 IM0       0.146000
     79 H14        173.2530   156.9480   148.9110 ha         1 IM0       0.126000
     80 H15        175.6690   156.7120   148.8040 ha         1 IM0       0.137000
     81 H16        161.7150   164.4430   170.7680 ho         1 IM0       0.467000
     82 H17        158.0070   161.1950   154.5850 hc         1 IM0       0.073700
     83 H18        156.6800   160.1850   154.0360 hc         1 IM0       0.073700
     84 H19        172.9930   161.2170   153.3320 h1         1 IM0       0.028367
     85 H20        174.3430   161.2520   152.1800 h1         1 IM0       0.028367
     86 H21        172.7000   160.8830   151.6140 h1         1 IM0       0.028367
     87 H22        168.7460   158.3100   154.5650 h1         1 IM0       0.060700
     88 H23        167.7980   159.5460   155.3950 h1         1 IM0       0.060700
     89 H24        165.7330   158.2580   155.0310 h1         1 IM0       0.041200
     90 H25        166.6080   157.0330   154.1200 h1         1 IM0       0.041200
     91 H26        162.3700   159.9700   154.7940 h4         1 IM0       0.021100
     92 H27        160.6410   157.7120   159.4230 ha         1 IM0       0.131000
     93 H28        161.5670   158.5170   161.5140 ha         1 IM0       0.132000
     94 H29        164.4910   161.1980   164.3710 ha         1 IM0       0.139000
     95 H30        165.0120   162.3160   166.4790 ha         1 IM0       0.124000
     96 H31        164.2590   163.3820   168.5850 ha         1 IM0       0.135000
     97 H32        153.6510   162.5630   157.0040 hn         1 IM0       0.383000
     98 H33        160.2080   159.7210   155.3570 hn         1 IM0       0.166000
     99 H34        165.3580   159.0370   152.6900 hn         1 IM0       0.193000
    100 H35        171.6730   158.5540   151.8900 hn         1 IM0       0.173000
    101 H36        166.2620   156.6030   156.5440 hn         1 IM0       0.397500
    102 H37        167.8090   156.5120   156.0940 hn         1 IM0       0.397500
    103 H40        175.6710   159.3880   153.3020 ho         1 IM0       0.443000
    104 H41        169.6800   160.0990   153.1800 ho         1 IM0       0.485000
    105 C21        164.4430   157.6220   151.6050 c          1 IM0       0.518600
    106 C31        177.6020   157.4640   150.4650 c          1 IM0       0.722600
    107 C34        173.4050   160.7540   152.4380 c3         1 IM0       0.138900
@<TRIPOS>BOND
     1     1     2 ar  
     2     1    30 1   
     3     1    47 ar  
     4     2     3 ar  
     5     2    66 1   
     6     3     4 ar  
     7     3    67 1   
     8     4     5 ar  
     9     4    46 ar  
    10     5     6 ar  
    11     5    68 1   
    12     6     7 1   
    13     6    44 ar  
    14     7    14 1   
    15     7    57 2   
    16     8     9 ar  
    17     8    14 1   
    18     8    43 ar  
    19     9    10 ar  
    20     9    69 1   
    21    10    11 ar  
    22    10    70 1   
    23    11    12 1   
    24    11    42 ar  
    25    12    18 1   
    26    12    56 2   
    27    13    17 1   
    28    13    18 1   
    29    13    31 1   
    30    13    71 1   
    31    14    72 1   
    32    15    16 2   
    33    15    31 1   
    34    15    50 1   
    35    16    48 1   
    36    16    73 1   
    37    17    51 1   
    38    17    65 2   
    39    18    74 1   
    40    19    20 ar  
    41    19    41 ar  
    42    19    51 1   
    43    20    21 ar  
    44    20    75 1   
    45    21    32 ar  
    46    21    76 1   
    47    22   106 1   
    48    23    24 ar  
    49    23    33 ar  
    50    23    77 1   
    51    24    25 ar  
    52    24    78 1   
    53    25    26 1   
    54    25    37 ar  
    55    26    53 1   
    56    26    61 2   
    57    27    28 ar  
    58    27    34 ar  
    59    27    79 1   
    60    28    29 ar  
    61    28    80 1   
    62    29    35 ar  
    63    29   106 1   
    64    30    81 1   
    65    31    82 1   
    66    31    83 1   
    67    32    55 ar  
    68    32   105 1   
    69    33    38 ar  
    70    33    52 1   
    71    34    36 ar  
    72    34    53 1   
    73    35    36 ar  
    74    35    59 1   
    75    36    60 1   
    76    37    38 ar  
    77    37    62 1   
    78    38    63 1   
    79    39    40 1   
    80    39    63 1   
    81    39    87 1   
    82    39    88 1   
    83    40    54 1   
    84    40    89 1   
    85    40    90 1   
    86    41    55 ar  
    87    41    91 1   
    88    42    43 ar  
    89    42    92 1   
    90    43    93 1   
    91    44    45 ar  
    92    44    94 1   
    93    45    46 ar  
    94    45    95 1   
    95    46    47 ar  
    96    47    96 1   
    97    48    49 1   
    98    48    97 1   
    99    49    50 2   
   100    51    98 1   
   101    52    99 1   
   102    52   105 1   
   103    53   100 1   
   104    54   101 1   
   105    54   102 1   
   106    58   106 1   
   107    59   103 1   
   108    60   107 1   
   109    62   104 1   
   110    64   105 2   
   111    84   107 1   
   112    85   107 1   
   113    86   107 1   
@<TRIPOS>SUBSTRUCTURE
     1 IM0         1 TEMP              0 ****  ****    0 ROOT
