@<TRIPOS>MOLECULE
IM1
   81    83     1     0     0
SMALL
abcg2


@<TRIPOS>ATOM
      1 C1          -2.7090     2.4720    -4.5130 c3         1 IM1       0.225000
      2 C2          -2.5220     3.8880    -5.0450 c3         1 IM1      -0.109100
      3 C3          -3.1090     1.5370    -5.6490 c3         1 IM1      -0.109100
      4 C4          -3.7400     2.4760    -3.3910 c3         1 IM1      -0.109100
      5 O5          -1.3880     2.1350    -4.0160 os         1 IM1      -0.480100
      6 C6          -1.1030     0.9560    -3.4660 c          1 IM1       0.652100
      7 O7          -1.8990     0.0690    -3.2380 o          1 IM1      -0.544000
      8 N8           0.2160     0.8990    -3.1640 ns         1 IM1      -0.502900
      9 C9           0.8810    -0.3280    -2.7840 c3         1 IM1       0.090700
     10 C10          1.8410    -0.7810    -3.8930 c3         1 IM1      -0.048100
     11 C11          1.1110    -1.0070    -5.1860 ca         1 IM1      -0.085300
     12 C12          1.0160    -0.0010    -6.1440 ca         1 IM1      -0.102000
     13 C13          0.2840    -0.1900    -7.3090 ca         1 IM1      -0.107500
     14 C14         -0.3650    -1.3960    -7.5360 ca         1 IM1      -0.108000
     15 C15         -0.2740    -2.4100    -6.5910 ca         1 IM1      -0.107500
     16 C16          0.4560    -2.2130    -5.4270 ca         1 IM1      -0.102000
     17 C17          1.5850    -0.1840    -1.4280 c3         1 IM1       0.164300
     18 O18          2.6590     0.7310    -1.4990 oh         1 IM1      -0.662000
     19 C19          0.5830     0.1610    -0.3280 c3         1 IM1      -0.105400
     20 C20          1.0440    -0.1700     1.0960 c3         1 IM1      -0.130700
     21 C21          2.2420     0.6650     1.5740 c3         1 IM1      -0.026100
     22 C22          2.5790     0.4480     3.0250 ca         1 IM1      -0.080300
     23 C23          2.8420    -0.8310     3.5180 ca         1 IM1      -0.107500
     24 C24          3.1510    -1.0310     4.8570 ca         1 IM1      -0.117500
     25 C25          3.2120     0.0510     5.7300 ca         1 IM1      -0.122000
     26 C26          2.9580     1.3280     5.2500 ca         1 IM1      -0.117500
     27 C27          2.6380     1.5200     3.9110 ca         1 IM1      -0.107500
     28 C28         -0.1230     0.0560     2.0420 c          1 IM1       0.593100
     29 O29         -0.6420     1.1520     2.1820 o          1 IM1      -0.577100
     30 N30         -0.5360    -1.0310     2.7190 ns         1 IM1      -0.519900
     31 C31         -1.6900    -1.0230     3.5960 c3         1 IM1       0.094400
     32 C32         -2.0330    -2.4740     3.9910 c3         1 IM1      -0.067700
     33 C33         -0.9690    -3.1220     4.8720 c3         1 IM1      -0.089600
     34 C34         -3.4040    -2.5520     4.6490 c3         1 IM1      -0.089600
     35 C35         -1.4550    -0.1380     4.7810 cc         1 IM1       0.396800
     36 N36         -0.2450     0.0430     5.3470 na         1 IM1      -0.281500
     37 C37         -0.4020     0.8680     6.4230 cc         1 IM1      -0.234000
     38 C38         -1.7360     1.1480     6.4630 cd         1 IM1       0.228900
     39 N39         -2.3820     0.5190     5.4340 nd         1 IM1      -0.675000
     40 H1          -3.4630     4.2590    -5.4500 hc         1 IM1       0.049589
     41 H2          -2.2090     4.5690    -4.2520 hc         1 IM1       0.049589
     42 H3          -1.7790     3.9210    -5.8420 hc         1 IM1       0.049589
     43 H4          -2.3350     1.4990    -6.4170 hc         1 IM1       0.049589
     44 H5          -3.2980     0.5240    -5.3020 hc         1 IM1       0.049589
     45 H6          -4.0240     1.9070    -6.1140 hc         1 IM1       0.049589
     46 H7          -3.3950     3.0750    -2.5460 hc         1 IM1       0.049589
     47 H8          -4.6640     2.9250    -3.7560 hc         1 IM1       0.049589
     48 H9          -3.9740     1.4760    -3.0360 hc         1 IM1       0.049589
     49 H10          0.7910     1.6540    -3.5060 hn         1 IM1       0.315500
     50 H11          0.1090    -1.0900    -2.6680 h1         1 IM1       0.088700
     51 H12          2.6270    -0.0340    -4.0240 hc         1 IM1       0.059700
     52 H13          2.3310    -1.7030    -3.5690 hc         1 IM1       0.059700
     53 H14          1.5250     0.9430    -5.9840 ha         1 IM1       0.108000
     54 H15          0.2220     0.6050    -8.0400 ha         1 IM1       0.112000
     55 H16         -0.9340    -1.5470    -8.4440 ha         1 IM1       0.112000
     56 H17         -0.7710    -3.3570    -6.7610 ha         1 IM1       0.112000
     57 H18          0.5170    -3.0090    -4.6920 ha         1 IM1       0.108000
     58 H19          2.0360    -1.1560    -1.2010 h1         1 IM1       0.070700
     59 H20          2.3020     1.6260    -1.4750 ho         1 IM1       0.447000
     60 H21         -0.3360    -0.3990    -0.5260 hc         1 IM1       0.070700
     61 H22          0.3100     1.2190    -0.3930 hc         1 IM1       0.070700
     62 H23          1.3250    -1.2280     1.1200 hc         1 IM1       0.045700
     63 H24          3.1090     0.4180     0.9590 hc         1 IM1       0.067700
     64 H25          2.0330     1.7240     1.4040 hc         1 IM1       0.067700
     65 H26          2.8140    -1.6840     2.8490 ha         1 IM1       0.116000
     66 H27          3.3480    -2.0320     5.2190 ha         1 IM1       0.116000
     67 H28          3.4510    -0.1040     6.7740 ha         1 IM1       0.116000
     68 H29          2.9970     2.1770     5.9210 ha         1 IM1       0.116000
     69 H30          2.4260     2.5200     3.5510 ha         1 IM1       0.116000
     70 H31         -0.1250    -1.9220     2.4900 hn         1 IM1       0.313500
     71 H32         -2.5520    -0.6130     3.0600 h1         1 IM1       0.090700
     72 H33         -2.0840    -3.0320     3.0480 hc         1 IM1       0.043700
     73 H34         -1.1830    -4.1840     4.9930 hc         1 IM1       0.039867
     74 H35          0.0380    -3.0450     4.4540 hc         1 IM1       0.039867
     75 H36         -0.9510    -2.6780     5.8690 hc         1 IM1       0.039867
     76 H37         -3.4260    -2.0000     5.5890 hc         1 IM1       0.039867
     77 H38         -4.1800    -2.1430     4.0020 hc         1 IM1       0.039867
     78 H39         -3.6590    -3.5900     4.8640 hc         1 IM1       0.039867
     79 H40          0.6320    -0.3280     5.0120 hn         1 IM1       0.359000
     80 H41          0.4240     1.1770     7.0410 h4         1 IM1       0.153000
     81 H42         -2.2620     1.7710     7.1700 h4         1 IM1       0.034100
@<TRIPOS>BOND
     1     1     2 1   
     2     1     3 1   
     3     1     4 1   
     4     1     5 1   
     5     2    40 1   
     6     2    41 1   
     7     2    42 1   
     8     3    43 1   
     9     3    44 1   
    10     3    45 1   
    11     4    46 1   
    12     4    47 1   
    13     4    48 1   
    14     5     6 1   
    15     6     7 2   
    16     6     8 1   
    17     8     9 1   
    18     8    49 1   
    19     9    10 1   
    20     9    17 1   
    21     9    50 1   
    22    10    11 1   
    23    10    51 1   
    24    10    52 1   
    25    11    12 ar  
    26    11    16 ar  
    27    12    13 ar  
    28    12    53 1   
    29    13    14 ar  
    30    13    54 1   
    31    14    15 ar  
    32    14    55 1   
    33    15    16 ar  
    34    15    56 1   
    35    16    57 1   
    36    17    18 1   
    37    17    19 1   
    38    17    58 1   
    39    18    59 1   
    40    19    20 1   
    41    19    60 1   
    42    19    61 1   
    43    20    21 1   
    44    20    28 1   
    45    20    62 1   
    46    21    22 1   
    47    21    63 1   
    48    21    64 1   
    49    22    23 ar  
    50    22    27 ar  
    51    23    24 ar  
    52    23    65 1   
    53    24    25 ar  
    54    24    66 1   
    55    25    26 ar  
    56    25    67 1   
    57    26    27 ar  
    58    26    68 1   
    59    27    69 1   
    60    28    29 2   
    61    28    30 1   
    62    30    31 1   
    63    30    70 1   
    64    31    32 1   
    65    31    35 1   
    66    31    71 1   
    67    32    33 1   
    68    32    34 1   
    69    32    72 1   
    70    33    73 1   
    71    33    74 1   
    72    33    75 1   
    73    34    76 1   
    74    34    77 1   
    75    34    78 1   
    76    35    36 1   
    77    35    39 2   
    78    36    37 1   
    79    36    79 1   
    80    37    38 2   
    81    37    80 1   
    82    38    39 1   
    83    38    81 1   
@<TRIPOS>SUBSTRUCTURE
     1 IM1         1 TEMP              0 ****  ****    0 ROOT
