@<TRIPOS>MOLECULE
IM1
   81    83     1     0     0
SMALL
No Charge or Current Charge


@<TRIPOS>ATOM
      1 C1          -2.5810     2.8800    -4.2110 c3         1 IM1       0.225000
      2 C2          -2.3080     4.1860    -4.9900 c3         1 IM1      -0.109100
      3 C3          -3.5200     1.9600    -5.0340 c3         1 IM1      -0.109100
      4 C4          -3.1360     3.2110    -2.8010 c3         1 IM1      -0.109100
      5 O5          -1.2800     2.2600    -4.0870 os         1 IM1      -0.480100
      6 C6          -1.0940     1.0630    -3.4540 c          1 IM1       0.652100
      7 O7          -1.9410     0.3740    -2.9100 o          1 IM1      -0.544000
      8 N8           0.2350     0.7570    -3.5190 ns         1 IM1      -0.502900
      9 C9           0.8430    -0.4820    -3.0060 c3         1 IM1       0.090700
     10 C10          1.8400    -1.0590    -4.0420 c3         1 IM1      -0.048100
     11 C11          1.2010    -1.2970    -5.4070 ca         1 IM1      -0.085300
     12 C12          1.5190    -0.4670    -6.5000 ca         1 IM1      -0.102000
     13 C13          0.9180    -0.6810    -7.7530 ca         1 IM1      -0.107500
     14 C14         -0.0050    -1.7270    -7.9200 ca         1 IM1      -0.108000
     15 C15         -0.3260    -2.5590    -6.8350 ca         1 IM1      -0.107500
     16 C16          0.2760    -2.3450    -5.5820 ca         1 IM1      -0.102000
     17 C17          1.4730    -0.2980    -1.5880 c3         1 IM1       0.164300
     18 O18          2.4650     0.7390    -1.6360 oh         1 IM1      -0.662000
     19 C19          0.4170     0.0460    -0.5000 c3         1 IM1      -0.105400
     20 C20          0.8550    -0.1770     0.9820 c3         1 IM1      -0.130700
     21 C21          1.9850     0.7670     1.4780 c3         1 IM1      -0.026100
     22 C22          2.2940     0.6100     2.9680 ca         1 IM1      -0.080300
     23 C23          2.6410    -0.6480     3.5040 ca         1 IM1      -0.107500
     24 C24          2.9140    -0.7860     4.8750 ca         1 IM1      -0.117500
     25 C25          2.8600     0.3340     5.7200 ca         1 IM1      -0.122000
     26 C26          2.5290     1.5920     5.1920 ca         1 IM1      -0.117500
     27 C27          2.2430     1.7290     3.8230 ca         1 IM1      -0.107500
     28 C28         -0.3650    -0.0750     1.9210 c          1 IM1       0.593100
     29 O29         -1.0630     0.9250     2.0020 o          1 IM1      -0.577100
     30 N30         -0.6090    -1.2040     2.6700 ns         1 IM1      -0.519900
     31 C31         -1.6810    -1.3410     3.6730 c3         1 IM1       0.094400
     32 C32         -1.7190    -2.8080     4.1980 c3         1 IM1      -0.067700
     33 C33         -0.4520    -3.2050     4.9990 c3         1 IM1      -0.089600
     34 C34         -3.0030    -3.1160     5.0030 c3         1 IM1      -0.089600
     35 C35         -1.6160    -0.2990     4.7860 cc         1 IM1       0.396800
     36 N36         -0.4500     0.2090     5.3080 na         1 IM1      -0.281500
     37 C37         -0.7820     1.1160     6.2940 cc         1 IM1      -0.234000
     38 C38         -2.1510     1.1300     6.3220 cd         1 IM1       0.228900
     39 N39         -2.6630     0.2550     5.3850 nd         1 IM1      -0.675000
     40 H1          -3.2360     4.7490    -5.1460 hc         1 IM1       0.049589
     41 H2          -1.6100     4.8290    -4.4400 hc         1 IM1       0.049589
     42 H3          -1.8720     3.9700    -5.9720 hc         1 IM1       0.049589
     43 H4          -3.0210     1.6120    -5.9460 hc         1 IM1       0.049589
     44 H5          -3.8420     1.0850    -4.4600 hc         1 IM1       0.049589
     45 H6          -4.4240     2.5050    -5.3300 hc         1 IM1       0.049589
     46 H7          -2.3760     3.7140    -2.1920 hc         1 IM1       0.049589
     47 H8          -4.0030     3.8790    -2.8800 hc         1 IM1       0.049589
     48 H9          -3.4680     2.3130    -2.2690 hc         1 IM1       0.049589
     49 H10          0.8040     1.4010    -4.0510 hn         1 IM1       0.315500
     50 H11          0.0430    -1.2290    -2.9030 h1         1 IM1       0.088700
     51 H12          2.6980    -0.3820    -4.1370 hc         1 IM1       0.059700
     52 H13          2.2440    -2.0040    -3.6580 hc         1 IM1       0.059700
     53 H14          2.2290     0.3480    -6.3810 ha         1 IM1       0.108000
     54 H15          1.1660    -0.0360    -8.5920 ha         1 IM1       0.112000
     55 H16         -0.4710    -1.8930    -8.8890 ha         1 IM1       0.112000
     56 H17         -1.0400    -3.3700    -6.9630 ha         1 IM1       0.112000
     57 H18          0.0200    -2.9940    -4.7470 ha         1 IM1       0.108000
     58 H19          1.9410    -1.2530    -1.3090 h1         1 IM1       0.070700
     59 H20          2.0080     1.5460    -1.9550 ho         1 IM1       0.447000
     60 H21         -0.4600    -0.5890    -0.6760 hc         1 IM1       0.070700
     61 H22          0.0700     1.0780    -0.6310 hc         1 IM1       0.070700
     62 H23          1.2410    -1.2010     1.0510 hc         1 IM1       0.045700
     63 H24          2.9020     0.5690     0.9120 hc         1 IM1       0.067700
     64 H25          1.7040     1.8040     1.2550 hc         1 IM1       0.067700
     65 H26          2.7050    -1.5210     2.8590 ha         1 IM1       0.116000
     66 H27          3.1780    -1.7610     5.2810 ha         1 IM1       0.116000
     67 H28          3.0780     0.2280     6.7810 ha         1 IM1       0.116000
     68 H29          2.4890     2.4620     5.8450 ha         1 IM1       0.116000
     69 H30          1.9810     2.7080     3.4280 ha         1 IM1       0.116000
     70 H31          0.0150    -1.9880     2.5240 hn         1 IM1       0.313500
     71 H32         -2.6250    -1.1640     3.1400 h1         1 IM1       0.090700
     72 H33         -1.7520    -3.4580     3.3140 hc         1 IM1       0.043700
     73 H34         -0.4830    -4.2690     5.2630 hc         1 IM1       0.039867
     74 H35          0.4600    -3.0350     4.4140 hc         1 IM1       0.039867
     75 H36         -0.3750    -2.6300     5.9290 hc         1 IM1       0.039867
     76 H37         -3.0240    -2.5590     5.9470 hc         1 IM1       0.039867
     77 H38         -3.8970    -2.8510     4.4260 hc         1 IM1       0.039867
     78 H39         -3.0610    -4.1860     5.2410 hc         1 IM1       0.039867
     79 H40          0.4830    -0.0350     4.9940 hn         1 IM1       0.359000
     80 H41         -0.0530     1.6680     6.8750 h4         1 IM1       0.153000
     81 H42         -2.7960     1.7210     6.9620 h4         1 IM1       0.034100
@<TRIPOS>BOND
     1     1     2 1   
     2     1     3 1   
     3     1     4 1   
     4     1     5 1   
     5     2    40 1   
     6     2    41 1   
     7     2    42 1   
     8     3    43 1   
     9     3    44 1   
    10     3    45 1   
    11     4    46 1   
    12     4    47 1   
    13     4    48 1   
    14     5     6 1   
    15     6     7 2   
    16     6     8 1   
    17     8     9 1   
    18     8    49 1   
    19     9    10 1   
    20     9    17 1   
    21     9    50 1   
    22    10    11 1   
    23    10    51 1   
    24    10    52 1   
    25    11    12 ar  
    26    11    16 ar  
    27    12    13 ar  
    28    12    53 1   
    29    13    14 ar  
    30    13    54 1   
    31    14    15 ar  
    32    14    55 1   
    33    15    16 ar  
    34    15    56 1   
    35    16    57 1   
    36    17    18 1   
    37    17    19 1   
    38    17    58 1   
    39    18    59 1   
    40    19    20 1   
    41    19    60 1   
    42    19    61 1   
    43    20    21 1   
    44    20    28 1   
    45    20    62 1   
    46    21    22 1   
    47    21    63 1   
    48    21    64 1   
    49    22    23 ar  
    50    22    27 ar  
    51    23    24 ar  
    52    23    65 1   
    53    24    25 ar  
    54    24    66 1   
    55    25    26 ar  
    56    25    67 1   
    57    26    27 ar  
    58    26    68 1   
    59    27    69 1   
    60    28    29 2   
    61    28    30 1   
    62    30    31 1   
    63    30    70 1   
    64    31    32 1   
    65    31    35 1   
    66    31    71 1   
    67    32    33 1   
    68    32    34 1   
    69    32    72 1   
    70    33    73 1   
    71    33    74 1   
    72    33    75 1   
    73    34    76 1   
    74    34    77 1   
    75    34    78 1   
    76    35    36 1   
    77    35    39 2   
    78    36    37 1   
    79    36    79 1   
    80    37    38 2   
    81    37    80 1   
    82    38    39 1   
    83    38    81 1   
@<TRIPOS>SUBSTRUCTURE
     1 IM1         1 TEMP              0 ****  ****    0 ROOT
