@<TRIPOS>MOLECULE
IM2
   38    38     1     0     0
SMALL
No Charge or Current Charge


@<TRIPOS>ATOM
      1 C7          -1.3020     1.7920     0.3720 c          1 IM2       0.600900
      2 C2          -0.0970    -0.6530    -1.3730 c2         1 IM2      -0.192600
      3 C6          -2.5330     1.5220    -0.4980 c3         1 IM2      -0.211700
      4 C5          -2.3670     0.2330    -1.3550 c5         1 IM2       0.201500
      5 C3          -0.8440    -1.2930    -0.4480 ce         1 IM2       0.098800
      6 O7          -0.5890     2.7820     0.2340 o          1 IM2      -0.553100
      7 C61         -3.8130     1.5980     0.3740 c3         1 IM2       0.182300
      8 O62         -3.7820     0.6000     1.3950 oh         1 IM2      -0.650000
      9 C62         -5.1240     1.4580    -0.4250 c3         1 IM2      -0.129100
     10 N4          -2.2270    -0.9710    -0.5030 nu         1 IM2      -0.766200
     11 C31         -0.3650    -2.2550     0.6710 c          1 IM2       0.712200
     12 O31          0.8040    -2.6160     0.7210 o          1 IM2      -0.697500
     13 O32         -1.1970    -2.6450     1.4850 o          1 IM2      -0.697500
     14 C22          2.3170     0.2110    -0.1750 c3         1 IM2       0.014600
     15 C23          3.8570     0.2910    -0.2060 c3         1 IM2       0.244800
     16 N24          4.3830     1.0140     0.9690 nu         1 IM2      -0.918400
     17 C25          5.7060     1.2550     1.2270 c2         1 IM2       0.637100
     18 N26          6.5810     0.9530     0.3540 n2         1 IM2      -0.876100
     19 C1          -1.0560     0.1580    -2.2110 c5         1 IM2      -0.022200
     20 H71         -1.0820     1.0350     1.1590 h4         1 IM2       0.027200
     21 H61A        -2.5920     2.3620    -1.2000 hc         1 IM2       0.060700
     22 H51         -3.2380     0.1530    -2.0210 h1         1 IM2       0.046700
     23 H61         -3.8270     2.5900     0.8460 h1         1 IM2       0.018700
     24 HO6         -4.5810     0.7360     1.9500 ho         1 IM2       0.439000
     25 H621        -5.2250     0.4540    -0.8550 hc         1 IM2       0.039700
     26 H622        -5.9900     1.6380     0.2230 hc         1 IM2       0.039700
     27 H623        -5.1560     2.1880    -1.2420 hc         1 IM2       0.039700
     28 H41         -2.7380    -1.0320     0.3850 hn         1 IM2       0.492000
     29 H221         1.8970     1.2240    -0.1550 h1         1 IM2       0.071200
     30 H222         1.9950    -0.3170     0.7310 h1         1 IM2       0.071200
     31 H231         4.2650    -0.7290    -0.2340 h1         1 IM2       0.054200
     32 H232         4.1650     0.8000    -1.1300 h1         1 IM2       0.054200
     33 H241         3.7460     1.2280     1.7340 hn         1 IM2       0.489000
     34 H25          5.9250     1.7120     2.1920 h5         1 IM2      -0.052200
     35 H26          7.5030     1.2130     0.7310 hn         1 IM2       0.360400
     36 H11         -0.6570     1.1490    -2.4540 hc         1 IM2       0.036700
     37 H12         -1.2410    -0.3520    -3.1640 hc         1 IM2       0.036700
     38 S21          1.6680    -0.6720    -1.6700 ss         1 IM2      -0.304600
@<TRIPOS>BOND
     1     1     3 1   
     2     1     6 2   
     3     1    20 1   
     4     2     5 2   
     5     2    19 1   
     6     2    38 1   
     7     3     4 1   
     8     3     7 1   
     9     3    21 1   
    10     4    10 1   
    11     4    19 1   
    12     4    22 1   
    13     5    10 1   
    14     5    11 1   
    15     7     8 1   
    16     7     9 1   
    17     7    23 1   
    18     8    24 1   
    19     9    25 1   
    20     9    26 1   
    21     9    27 1   
    22    10    28 1   
    23    11    12 1   
    24    11    13 1   
    25    14    15 1   
    26    14    29 1   
    27    14    30 1   
    28    14    38 1   
    29    15    16 1   
    30    15    31 1   
    31    15    32 1   
    32    16    17 1   
    33    16    33 1   
    34    17    18 2   
    35    17    34 1   
    36    18    35 1   
    37    19    36 1   
    38    19    37 1   
@<TRIPOS>SUBSTRUCTURE
     1 IM2         1 TEMP              0 ****  ****    0 ROOT
