@<TRIPOS>MOLECULE
IM2
   38    38     1     0     0
SMALL
abcg2


@<TRIPOS>ATOM
      1 C7          -1.3250     1.7040     0.4840 c          1 IM2       0.600900
      2 C2          -0.0920    -0.5490    -1.2240 c2         1 IM2      -0.192600
      3 C6          -2.4990     1.4950    -0.4350 c3         1 IM2      -0.211700
      4 C5          -2.3270     0.2310    -1.3090 c5         1 IM2       0.201500
      5 C3          -0.8480    -1.2650    -0.3630 ce         1 IM2       0.098800
      6 O7          -0.5910     2.6640     0.4230 o          1 IM2      -0.553100
      7 C61         -3.8110     1.5500     0.3690 c3         1 IM2       0.182300
      8 O62         -3.7630     0.5520     1.3730 oh         1 IM2      -0.650000
      9 C62         -5.0460     1.4090    -0.5070 c3         1 IM2      -0.129100
     10 N4          -2.1910    -1.0020    -0.5440 nu         1 IM2      -0.766200
     11 C31         -0.4500    -2.2610     0.7100 c          1 IM2       0.712200
     12 O31          0.7590    -2.3610     0.9740 o          1 IM2      -0.697500
     13 O32         -1.3980    -2.8740     1.2370 o          1 IM2      -0.697500
     14 C22          2.3010     0.3370    -0.1360 c3         1 IM2       0.014600
     15 C23          3.8180     0.3060    -0.2030 c3         1 IM2       0.244800
     16 N24          4.3720     1.0890     0.8740 nu         1 IM2      -0.918400
     17 C25          5.6980     1.2230     1.0690 c2         1 IM2       0.637100
     18 N26          6.5680     0.6440     0.3340 n2         1 IM2      -0.876100
     19 C1          -1.0080     0.2710    -2.1000 c5         1 IM2      -0.022200
     20 H71         -1.1780     0.9420     1.2660 h4         1 IM2       0.027200
     21 H61A        -2.5250     2.3470    -1.1230 hc         1 IM2       0.060700
     22 H51         -3.1830     0.1750    -1.9820 h1         1 IM2       0.046700
     23 H61         -3.8490     2.5450     0.8360 h1         1 IM2       0.018700
     24 HO6         -4.5850     0.5820     1.8730 ho         1 IM2       0.439000
     25 H621        -5.1180     0.4180    -0.9570 hc         1 IM2       0.039700
     26 H622        -5.9490     1.5700     0.0850 hc         1 IM2       0.039700
     27 H623        -5.0440     2.1480    -1.3090 hc         1 IM2       0.039700
     28 H41         -2.7840    -1.1170     0.2640 hn         1 IM2       0.492000
     29 H221         1.9360     1.3630    -0.2020 h1         1 IM2       0.071200
     30 H222         1.9430    -0.1090     0.7910 h1         1 IM2       0.071200
     31 H231         4.1710    -0.7280    -0.1340 h1         1 IM2       0.054200
     32 H232         4.1620     0.6910    -1.1690 h1         1 IM2       0.054200
     33 H241         3.7500     1.6150     1.4620 hn         1 IM2       0.489000
     34 H25          5.9340     1.8700     1.9160 h5         1 IM2      -0.052200
     35 H26          7.4950     0.8770     0.6660 hn         1 IM2       0.360400
     36 H11         -0.6520     1.2890    -2.2740 hc         1 IM2       0.036700
     37 H12         -1.1310    -0.1910    -3.0860 hc         1 IM2       0.036700
     38 S21          1.6270    -0.6380    -1.5140 ss         1 IM2      -0.304600
@<TRIPOS>BOND
     1     1     3 1   
     2     1     6 2   
     3     1    20 1   
     4     2     5 2   
     5     2    19 1   
     6     2    38 1   
     7     3     4 1   
     8     3     7 1   
     9     3    21 1   
    10     4    10 1   
    11     4    19 1   
    12     4    22 1   
    13     5    10 1   
    14     5    11 1   
    15     7     8 1   
    16     7     9 1   
    17     7    23 1   
    18     8    24 1   
    19     9    25 1   
    20     9    26 1   
    21     9    27 1   
    22    10    28 1   
    23    11    12 1   
    24    11    13 1   
    25    14    15 1   
    26    14    29 1   
    27    14    30 1   
    28    14    38 1   
    29    15    16 1   
    30    15    31 1   
    31    15    32 1   
    32    16    17 1   
    33    16    33 1   
    34    17    18 2   
    35    17    34 1   
    36    18    35 1   
    37    19    36 1   
    38    19    37 1   
@<TRIPOS>SUBSTRUCTURE
     1 IM2         1 TEMP              0 ****  ****    0 ROOT
