@<TRIPOS>MOLECULE
IM3
   22    22     1     0     0
SMALL
No Charge or Current Charge


@<TRIPOS>ATOM
      1 O            7.3550    -0.2800     0.4420 o          1 IM3      -0.706500
      2 C            6.4250    -1.0600     0.6380 c          1 IM3       0.634700
      3 OXT          6.4020    -1.7760     1.6360 o          1 IM3      -0.706500
      4 CA           5.2590    -1.1400    -0.3890 ce         1 IM3       0.345300
      5 N            5.2640    -0.4220    -1.4850 n2         1 IM3      -0.751100
      6 CB           4.1410    -2.1540    -0.1540 c3         1 IM3      -0.118400
      7 CG           2.9570    -1.5810     0.6140 ca         1 IM3      -0.032300
      8 CD2          2.9240    -1.6410     2.0220 ca         1 IM3      -0.088000
      9 CE2          1.8310    -1.1090     2.7240 ca         1 IM3       0.113100
     10 O14          1.7910    -1.1640     4.0860 oh         1 IM3      -0.538100
     11 CZ           0.7600    -0.5130     2.0280 ca         1 IM3       0.018100
     12 OH          -0.3050     0.0050     2.7150 oh         1 IM3      -0.570100
     13 CE1          0.7890    -0.4510     0.6250 ca         1 IM3      -0.166000
     14 CD1          1.8850    -0.9830    -0.0780 ca         1 IM3      -0.113000
     15 HN           4.4180    -0.6250    -2.0320 hn         1 IM3       0.307400
     16 HB1          3.7990    -2.5610    -1.1140 hc         1 IM3       0.045200
     17 HB2          4.5310    -3.0260     0.3840 hc         1 IM3       0.045200
     18 HD1          1.9000    -0.9310    -1.1650 ha         1 IM3       0.108000
     19 HE1         -0.0300     0.0070     0.0750 ha         1 IM3       0.094000
     20 HOH         -0.9470     0.3750     2.0680 ho         1 IM3       0.459000
     21 H14          0.9440    -0.7360     4.3450 ho         1 IM3       0.465000
     22 HD2          3.7440    -2.0970     2.5710 ha         1 IM3       0.156000
@<TRIPOS>BOND
     1     1     2 1   
     2     2     3 1   
     3     2     4 1   
     4     4     5 2   
     5     4     6 1   
     6     5    15 1   
     7     6     7 1   
     8     6    16 1   
     9     6    17 1   
    10     7     8 ar  
    11     7    14 ar  
    12     8     9 ar  
    13     8    22 1   
    14     9    10 1   
    15     9    11 ar  
    16    10    21 1   
    17    11    12 1   
    18    11    13 ar  
    19    12    20 1   
    20    13    14 ar  
    21    13    19 1   
    22    14    18 1   
@<TRIPOS>SUBSTRUCTURE
     1 IM3         1 TEMP              0 ****  ****    0 ROOT
