@<TRIPOS>MOLECULE
IM3
   22    22     1     0     0
SMALL
bcc


@<TRIPOS>ATOM
      1 O            6.1780     0.4470     0.8100 o          1 IM3      -0.811800
      2 C            5.9330    -0.7690     0.7630 c          1 IM3       0.845300
      3 OXT          6.2430    -1.6480     1.5890 o          1 IM3      -0.811800
      4 CA           5.1760    -1.2840    -0.4630 ce         1 IM3       0.345300
      5 N            5.5160    -0.8700    -1.6120 n2         1 IM3      -0.751100
      6 CB           4.0760    -2.2820    -0.2000 c3         1 IM3      -0.118400
      7 CG           2.9540    -1.6430     0.5790 ca         1 IM3      -0.032300
      8 CD2          2.8880    -1.7600     1.9650 ca         1 IM3      -0.106000
      9 CE2          1.8730    -1.1560     2.6910 ca         1 IM3       0.113100
     10 O14          1.8510    -1.3070     4.0340 oh         1 IM3      -0.499100
     11 CZ           0.8980    -0.4060     2.0220 ca         1 IM3       0.018100
     12 OH          -0.0650     0.1520     2.7950 oh         1 IM3      -0.531100
     13 CE1          0.9620    -0.2790     0.6450 ca         1 IM3      -0.184000
     14 CD1          1.9830    -0.8910    -0.0730 ca         1 IM3      -0.131000
     15 HN           4.9590    -1.3240    -2.3330 hn         1 IM3       0.307400
     16 HB1          3.6950    -2.6690    -1.1490 hc         1 IM3       0.045200
     17 HB2          4.4790    -3.1270     0.3590 hc         1 IM3       0.045200
     18 HD1          2.0120    -0.7810    -1.1500 ha         1 IM3       0.126000
     19 HE1          0.2070     0.2990     0.1240 ha         1 IM3       0.112000
     20 HOH         -0.7050     0.6270     2.2550 ho         1 IM3       0.420000
     21 H14          1.0810    -0.8670     4.4110 ho         1 IM3       0.426000
     22 HD2          3.6440    -2.3260     2.4960 ha         1 IM3       0.174000
@<TRIPOS>BOND
     1     1     2 1   
     2     2     3 1   
     3     2     4 1   
     4     4     5 2   
     5     4     6 1   
     6     5    15 1   
     7     6     7 1   
     8     6    16 1   
     9     6    17 1   
    10     7     8 ar  
    11     7    14 ar  
    12     8     9 ar  
    13     8    22 1   
    14     9    10 1   
    15     9    11 ar  
    16    10    21 1   
    17    11    12 1   
    18    11    13 ar  
    19    12    20 1   
    20    13    14 ar  
    21    13    19 1   
    22    14    18 1   
@<TRIPOS>SUBSTRUCTURE
     1 IM3         1 TEMP              0 ****  ****    0 ROOT
