@<TRIPOS>MOLECULE
IM4
   27    28     1     0     0
SMALL
No Charge or Current Charge


@<TRIPOS>ATOM
      1 C5           1.8480     1.5150     0.3650 ca         1 IM4      -0.060000
      2 C6           3.0340     0.9290    -0.1010 ca         1 IM4      -0.159000
      3 C1           3.2250    -0.4510     0.0720 ca         1 IM4       0.453000
      4 Cl7          4.6990    -1.2210    -0.4960 cl         1 IM4      -0.160000
      5 N2           2.3220    -1.2570     0.6700 nb         1 IM4      -0.654000
      6 C3           1.1760    -0.6900     1.1150 ca         1 IM4       0.387900
      7 C4           0.8970     0.6850     0.9880 ca         1 IM4      -0.192300
      8 C8          -0.4100     1.2510     1.5160 c3         1 IM4       0.288100
      9 N9          -1.4270     1.4170     0.4660 nh         1 IM4      -0.733600
     10 C13         -1.4940     2.6080    -0.3960 c5         1 IM4       0.183800
     11 C12         -2.8050     2.2960    -1.1620 c5         1 IM4       0.196800
     12 N11         -2.7140     0.8120    -1.2610 nu         1 IM4      -0.896400
     13 C10         -2.0760     0.3890    -0.1390 c2         1 IM4       0.894100
     14 N14         -2.0410    -0.7930     0.3020 n2         1 IM4      -0.820100
     15 N15         -2.6710    -1.7980    -0.3440 no         1 IM4       0.865400
     16 O16         -3.8870    -1.6630    -0.5140 o          1 IM4      -0.449000
     17 O17         -2.0990    -2.8850    -0.2870 o          1 IM4      -0.449000
     18 H5           1.6720     2.5830     0.2460 ha         1 IM4       0.117000
     19 H6           3.7970     1.5280    -0.5890 ha         1 IM4       0.141000
     20 H3           0.4620    -1.3610     1.5940 h4         1 IM4       0.055100
     21 H8          -0.7980     0.6060     2.3160 h1         1 IM4       0.081200
     22 H8A         -0.2010     2.2250     1.9800 h1         1 IM4       0.081200
     23 H13         -1.5390     3.5520     0.1650 h1         1 IM4       0.067200
     24 H7          -0.6420     2.6450    -1.0880 h1         1 IM4       0.067200
     25 H12         -3.6780     2.6150    -0.5740 h1         1 IM4       0.068200
     26 H9          -2.8460     2.8010    -2.1370 h1         1 IM4       0.068200
     27 H10         -3.5630     0.2740    -1.4180 hn         1 IM4       0.558000
@<TRIPOS>BOND
     1     1     2 ar  
     2     1     7 ar  
     3     1    18 1   
     4     2     3 ar  
     5     2    19 1   
     6     3     4 1   
     7     3     5 ar  
     8     5     6 ar  
     9     6     7 ar  
    10     6    20 1   
    11     7     8 1   
    12     8     9 1   
    13     8    21 1   
    14     8    22 1   
    15     9    10 1   
    16     9    13 1   
    17    10    11 1   
    18    10    23 1   
    19    10    24 1   
    20    11    12 1   
    21    11    25 1   
    22    11    26 1   
    23    12    13 1   
    24    12    27 1   
    25    13    14 2   
    26    14    15 1   
    27    15    16 1   
    28    15    17 1   
@<TRIPOS>SUBSTRUCTURE
     1 IM4         1 TEMP              0 ****  ****    0 ROOT
