@<TRIPOS>MOLECULE
IM4
   27    28     1     0     0
SMALL
abcg2


@<TRIPOS>ATOM
      1 C5           1.8400     1.5650     0.4820 ca         1 IM4      -0.060000
      2 C6           3.0170     1.0880    -0.0680 ca         1 IM4      -0.159000
      3 C1           3.1790    -0.2870    -0.1140 ca         1 IM4       0.453000
      4 CL7          4.6360    -0.9370    -0.7910 cl         1 IM4      -0.160000
      5 N2           2.3010    -1.1540     0.3290 nb         1 IM4      -0.654000
      6 C3           1.1740    -0.6820     0.8490 ca         1 IM4       0.387900
      7 C4           0.8820     0.6720     0.9500 ca         1 IM4      -0.192300
      8 C8          -0.4280     1.1330     1.5290 c3         1 IM4       0.288100
      9 N9          -1.4490     1.3570     0.5270 nh         1 IM4      -0.733600
     10 C13         -1.4100     2.5110    -0.3570 c5         1 IM4       0.183800
     11 C12         -2.6270     2.2700    -1.2470 c5         1 IM4       0.196800
     12 N11         -2.7860     0.8330    -1.1250 nu         1 IM4      -0.896400
     13 C10         -2.1630     0.3720    -0.0450 c2         1 IM4       0.894100
     14 N14         -2.1200    -0.8320     0.5210 n2         1 IM4      -0.820100
     15 N15         -2.8530    -1.8120     0.0270 no         1 IM4       0.865400
     16 O16         -3.6080    -1.6750    -0.9320 o          1 IM4      -0.449000
     17 O17         -2.7320    -2.8880     0.5870 o          1 IM4      -0.449000
     18 H5           1.6860     2.6340     0.5540 ha         1 IM4       0.117000
     19 H6           3.7800     1.7580    -0.4350 ha         1 IM4       0.141000
     20 H3           0.4630    -1.4200     1.2040 h4         1 IM4       0.055100
     21 H8          -0.8030     0.4080     2.2490 h1         1 IM4       0.081200
     22 H8A         -0.2960     2.0690     2.0740 h1         1 IM4       0.081200
     23 H13         -1.4770     3.4430     0.2020 h1         1 IM4       0.067200
     24 H7          -0.4870     2.5220    -0.9450 h1         1 IM4       0.067200
     25 H12         -3.5140     2.7880    -0.8780 h1         1 IM4       0.068200
     26 H9          -2.4520     2.5620    -2.2790 h1         1 IM4       0.068200
     27 H10         -3.5130     0.3130    -1.5810 hn         1 IM4       0.558000
@<TRIPOS>BOND
     1     1     2 ar  
     2     1     7 ar  
     3     1    18 1   
     4     2     3 ar  
     5     2    19 1   
     6     3     4 1   
     7     3     5 ar  
     8     5     6 ar  
     9     6     7 ar  
    10     6    20 1   
    11     7     8 1   
    12     8     9 1   
    13     8    21 1   
    14     8    22 1   
    15     9    10 1   
    16     9    13 1   
    17    10    11 1   
    18    10    23 1   
    19    10    24 1   
    20    11    12 1   
    21    11    25 1   
    22    11    26 1   
    23    12    13 1   
    24    12    27 1   
    25    13    14 2   
    26    14    15 1   
    27    15    16 1   
    28    15    17 1   
@<TRIPOS>SUBSTRUCTURE
     1 IM4         1 TEMP              0 ****  ****    0 ROOT
