@<TRIPOS>MOLECULE
IM5
   37    39     1     0     0
SMALL
bcc


@<TRIPOS>ATOM
      1 N1           3.8280     0.9250    -0.6450 ns         1 IM5      -0.511400
      2 C2           2.7600     1.7240    -0.3270 cc         1 IM5       0.682800
      3 N2           2.8640     3.0250    -0.6940 nv         1 IM5      -0.918800
      4 N3           1.6800     1.2840     0.2430 nd         1 IM5      -0.642100
      5 C4           1.6640    -0.0530     0.5020 cd         1 IM5       0.200400
      6 C5           2.7200    -0.9090     0.2080 cc         1 IM5      -0.277900
      7 C6           3.9110    -0.4430    -0.4060 c          1 IM5       0.756100
      8 O6           4.9080    -1.0840    -0.7130 o          1 IM5      -0.639500
      9 N7           2.3780    -2.1680     0.6120 na         1 IM5      -0.127100
     10 C8           1.1390    -2.1240     1.1500 cc         1 IM5      -0.107300
     11 C9           0.6480    -0.8350     1.1100 cd         1 IM5      -0.161300
     12 N4          -1.5740    -0.0290     0.4930 n3         1 IM5      -0.692600
     13 C10         -0.6850    -0.3690     1.5850 c3         1 IM5       0.258100
     14 C7          -1.9310    -1.1400    -0.3630 c5         1 IM5       0.124800
     15 C3          -3.0640    -0.5870    -1.2270 c5         1 IM5       0.148100
     16 O3          -2.6140     0.0230    -2.4180 oh         1 IM5      -0.579800
     17 C11         -3.7090     0.4900    -0.3310 c5         1 IM5      -0.072700
     18 C12         -5.1730     0.2130    -0.0610 c3         1 IM5       0.145400
     19 O5          -5.6680     1.2110     0.8040 oh         1 IM5      -0.596800
     20 C13         -2.8490     0.5000     0.9370 c5         1 IM5       0.170800
     21 HN1          4.6290     1.3440    -1.0990 hn         1 IM5       0.322500
     22 HN2          3.7790     3.4320    -0.8000 hn         1 IM5       0.429300
     23 HN2A         2.1780     3.6440    -0.2960 hn         1 IM5       0.429300
     24 H8           0.6700    -3.0170     1.5310 h4         1 IM5       0.164000
     25 H10         -1.1290    -1.1430     2.2360 h1         1 IM5       0.034700
     26 H10A        -0.5640     0.5220     2.2080 h1         1 IM5       0.034700
     27 H2          -1.0810    -1.4980    -0.9490 h1         1 IM5       0.036700
     28 H2'A        -2.3090    -1.9990     0.2210 h1         1 IM5       0.036700
     29 H3          -3.7790    -1.3890    -1.4560 h1         1 IM5       0.025700
     30 HO3         -2.2430    -0.6640    -2.9800 ho         1 IM5       0.400000
     31 H4          -3.6230     1.4540    -0.8420 hc         1 IM5       0.095700
     32 H5          -5.7240     0.1950    -1.0110 h1         1 IM5       0.017200
     33 H5'A        -5.2750    -0.7880     0.3810 h1         1 IM5       0.017200
     34 HO5         -6.5730     0.9870     1.0370 ho         1 IM5       0.402000
     35 H6          -3.3070    -0.1430     1.7100 h1         1 IM5       0.041200
     36 H6'A        -2.7330     1.4950     1.3700 h1         1 IM5       0.041200
     37 HN7          2.9480    -2.9920     0.5210 hn         1 IM5       0.313700
@<TRIPOS>BOND
     1     1     2 1   
     2     1     7 1   
     3     1    21 1   
     4     2     3 1   
     5     2     4 2   
     6     3    22 1   
     7     3    23 1   
     8     4     5 1   
     9     5     6 2   
    10     5    11 1   
    11     6     7 1   
    12     6     9 1   
    13     7     8 2   
    14     9    10 1   
    15     9    37 1   
    16    10    11 2   
    17    10    24 1   
    18    11    13 1   
    19    12    13 1   
    20    12    14 1   
    21    12    20 1   
    22    13    25 1   
    23    13    26 1   
    24    14    15 1   
    25    14    27 1   
    26    14    28 1   
    27    15    16 1   
    28    15    17 1   
    29    15    29 1   
    30    16    30 1   
    31    17    18 1   
    32    17    20 1   
    33    17    31 1   
    34    18    19 1   
    35    18    32 1   
    36    18    33 1   
    37    19    34 1   
    38    20    35 1   
    39    20    36 1   
@<TRIPOS>SUBSTRUCTURE
     1 IM5         1 TEMP              0 ****  ****    0 ROOT
