@<TRIPOS>MOLECULE
IM5
   37    39     1     0     0
SMALL
No Charge or Current Charge


@<TRIPOS>ATOM
      1 N1           4.1140     1.2530    -0.4140 ns         1 IM5      -0.444400
      2 C2           3.0730     1.9470     0.0900 cc         1 IM5       0.682800
      3 N2           3.2400     3.2610     0.1590 nv         1 IM5      -1.029200
      4 N3           1.9270     1.4680     0.5180 nd         1 IM5      -0.642100
      5 C4           1.8310     0.0820     0.4160 cd         1 IM5       0.200400
      6 C5           2.8580    -0.6670    -0.0790 cc         1 IM5      -0.328600
      7 C6           4.1100    -0.0880    -0.5460 c          1 IM5       0.613600
      8 O6           5.0510    -0.7180    -1.0020 o          1 IM5      -0.564000
      9 N7           2.4180    -1.9930    -0.0210 na         1 IM5      -0.076000
     10 C8           1.1260    -2.0470     0.5170 cc         1 IM5      -0.140000
     11 C9           0.7520    -0.7490     0.7840 cd         1 IM5      -0.161300
     12 N4          -1.6610    -0.2150     0.4000 n3         1 IM5      -0.692600
     13 C10         -0.5570    -0.2910     1.3820 c3         1 IM5       0.258100
     14 C7          -2.0430    -1.4890    -0.2670 c5         1 IM5       0.124800
     15 C3          -3.5010    -1.2440    -0.8050 c5         1 IM5       0.171300
     16 O3          -3.6240    -1.4240    -2.2200 oh         1 IM5      -0.642000
     17 C11         -3.7880     0.2280    -0.3820 c5         1 IM5      -0.072700
     18 C12         -5.2870     0.5510    -0.2040 c3         1 IM5       0.168600
     19 O5          -5.4620     1.9150     0.1990 oh         1 IM5      -0.659000
     20 C13         -2.9370     0.3290     0.9050 c5         1 IM5       0.170800
     21 HN1          4.9340     1.7390    -0.7330 hn         1 IM5       0.322500
     22 HN2          4.1870     3.6010     0.2720 hn         1 IM5       0.484500
     23 HN2A         2.5350     3.7450     0.7020 hn         1 IM5       0.484500
     24 H8           0.5930    -2.9790     0.6600 h4         1 IM5       0.146000
     25 H10         -0.8260    -0.9810     2.1940 h1         1 IM5       0.034700
     26 H10A        -0.4040     0.6950     1.8410 h1         1 IM5       0.034700
     27 H2          -1.3390    -1.7430    -1.0720 h1         1 IM5       0.036700
     28 H2'A        -2.0450    -2.3240     0.4480 h1         1 IM5       0.036700
     29 H3          -4.1910    -1.9230    -0.2850 h1         1 IM5       0.025700
     30 HO3         -3.4030    -2.3630    -2.4070 ho         1 IM5       0.439000
     31 H4          -3.4020     0.9220    -1.1360 hc         1 IM5       0.095700
     32 H5          -5.8060     0.3690    -1.1540 h1         1 IM5       0.017200
     33 H5'A        -5.7150    -0.1250     0.5490 h1         1 IM5       0.017200
     34 HO5         -6.4300     2.0690     0.2720 ho         1 IM5       0.441000
     35 H6          -3.3510    -0.2800     1.7230 h1         1 IM5       0.041200
     36 H6'A        -2.8380     1.3650     1.2560 h1         1 IM5       0.041200
     37 HN7          2.9580    -2.8020    -0.3200 hn         1 IM5       0.364000
@<TRIPOS>BOND
     1     1     2 1   
     2     1     7 1   
     3     1    21 1   
     4     2     3 1   
     5     2     4 2   
     6     3    22 1   
     7     3    23 1   
     8     4     5 1   
     9     5     6 2   
    10     5    11 1   
    11     6     7 1   
    12     6     9 1   
    13     7     8 2   
    14     9    10 1   
    15     9    37 1   
    16    10    11 2   
    17    10    24 1   
    18    11    13 1   
    19    12    13 1   
    20    12    14 1   
    21    12    20 1   
    22    13    25 1   
    23    13    26 1   
    24    14    15 1   
    25    14    27 1   
    26    14    28 1   
    27    15    16 1   
    28    15    17 1   
    29    15    29 1   
    30    16    30 1   
    31    17    18 1   
    32    17    20 1   
    33    17    31 1   
    34    18    19 1   
    35    18    32 1   
    36    18    33 1   
    37    19    34 1   
    38    20    35 1   
    39    20    36 1   
@<TRIPOS>SUBSTRUCTURE
     1 IM5         1 TEMP              0 ****  ****    0 ROOT
