@<TRIPOS>MOLECULE
IM6
   48    51     1     0     0
SMALL
bcc


@<TRIPOS>ATOM
      1 N1          -8.0560    -1.3240    -0.9290 nc         1 IM6      -0.664000
      2 N3          -6.3600    -0.2110    -0.0690 na         1 IM6      -0.126000
      3 C4          -7.4250    -0.0090     0.7730 cd         1 IM6      -0.250600
      4 C5          -8.4570    -0.7070     0.2240 cc         1 IM6       0.299200
      5 C6          -5.0610     0.3110     0.0800 cc         1 IM6      -0.038200
      6 C7          -3.9890    -0.5150    -0.0590 cd         1 IM6      -0.074300
      7 C10         -3.6230     2.1940     0.5040 cd         1 IM6      -0.081000
      8 C13         -0.6140     0.4110     0.1660 cc         1 IM6       0.216200
      9 C17          3.0070    -0.4840    -0.0670 ca         1 IM6      -0.157600
     10 C20          5.8140    -0.1740    -0.0640 ca         1 IM6      -0.035300
     11 C21          5.2170    -1.4160     0.1750 ca         1 IM6      -0.138000
     12 C22          3.8450    -1.5740     0.1670 ca         1 IM6      -0.085500
     13 C28          7.9410    -0.9680    -1.1000 c3         1 IM6      -0.083767
     14 O47          1.0530    -1.8130    -0.2700 o          1 IM6      -0.587100
     15 C16          1.5360    -0.7120    -0.0710 c          1 IM6       0.692700
     16 C27          7.3320    -0.0470    -0.0350 c3         1 IM6      -0.004700
     17 C36          7.7980     1.3830    -0.3110 c3         1 IM6      -0.083767
     18 C32          7.8390    -0.4650     1.3520 c3         1 IM6      -0.083767
     19 C19          4.9680     0.9020    -0.3170 ca         1 IM6      -0.138000
     20 C18          3.5880     0.7540    -0.3180 ca         1 IM6      -0.085500
     21 N15          0.7680     0.3810     0.1700 ns         1 IM6      -0.454100
     22 C12         -1.5190    -0.6020    -0.0590 cd         1 IM6      -0.234100
     23 N8          -2.7410     0.0110     0.0520 na         1 IM6       0.043700
     24 N14         -1.2200     1.5920     0.4100 nc         1 IM6      -0.330600
     25 C9          -2.5140     1.3430     0.3400 cd         1 IM6      -0.016300
     26 C11         -4.8810     1.6870     0.3660 cc         1 IM6      -0.126000
     27 C2          -6.8000    -1.0080    -1.0770 cd         1 IM6       0.399400
     28 H1          -7.3460     0.5810     1.6710 h4         1 IM6       0.179000
     29 H2          -9.4650    -0.7970     0.5990 h4         1 IM6       0.041100
     30 H3          -4.0650    -1.5750    -0.2480 h4         1 IM6       0.179000
     31 H4          -3.4540     3.2390     0.7200 ha         1 IM6       0.167000
     32 H5           5.8320    -2.2850     0.3710 ha         1 IM6       0.136500
     33 H6           3.4200    -2.5510     0.3560 ha         1 IM6       0.141500
     34 H7           7.6060    -0.6890    -2.1010 hc         1 IM6       0.037256
     35 H8           9.0300    -0.8960    -1.0780 hc         1 IM6       0.037256
     36 H9           7.6780    -2.0150    -0.9400 hc         1 IM6       0.037256
     37 H10          7.4310     2.0860     0.4380 hc         1 IM6       0.037256
     38 H11          8.8880     1.4240    -0.2900 hc         1 IM6       0.037256
     39 H12          7.4790     1.7370    -1.2940 hc         1 IM6       0.037256
     40 H13          7.6000    -1.5050     1.5760 hc         1 IM6       0.037256
     41 H14          8.9240    -0.3590     1.4060 hc         1 IM6       0.037256
     42 H15          7.4010     0.1560     2.1360 hc         1 IM6       0.037256
     43 H16          5.3720     1.8830    -0.5260 ha         1 IM6       0.136500
     44 H17          2.9840     1.6230    -0.5470 ha         1 IM6       0.141500
     45 H18          1.2070     1.2540     0.4190 hn         1 IM6       0.341500
     46 H19         -1.4200    -1.6490    -0.2720 h4         1 IM6       0.212000
     47 H20         -5.7440     2.3320     0.4610 ha         1 IM6       0.156000
     48 H21         -6.1570    -1.3030    -1.8930 h5         1 IM6       0.058100
@<TRIPOS>BOND
     1     1     4 1   
     2     1    27 2   
     3     2     3 1   
     4     2     5 1   
     5     2    27 1   
     6     3     4 2   
     7     3    28 1   
     8     4    29 1   
     9     5     6 2   
    10     5    26 1   
    11     6    23 1   
    12     6    30 1   
    13     7    25 1   
    14     7    26 2   
    15     7    31 1   
    16     8    21 1   
    17     8    22 2   
    18     8    24 1   
    19     9    12 ar  
    20     9    15 1   
    21     9    20 ar  
    22    10    11 ar  
    23    10    16 1   
    24    10    19 ar  
    25    11    12 ar  
    26    11    32 1   
    27    12    33 1   
    28    13    16 1   
    29    13    34 1   
    30    13    35 1   
    31    13    36 1   
    32    14    15 2   
    33    15    21 1   
    34    16    17 1   
    35    16    18 1   
    36    17    37 1   
    37    17    38 1   
    38    17    39 1   
    39    18    40 1   
    40    18    41 1   
    41    18    42 1   
    42    19    20 ar  
    43    19    43 1   
    44    20    44 1   
    45    21    45 1   
    46    22    23 1   
    47    22    46 1   
    48    23    25 1   
    49    24    25 2   
    50    26    47 1   
    51    27    48 1   
@<TRIPOS>SUBSTRUCTURE
     1 IM6         1 TEMP              0 ****  ****    0 ROOT
