@<TRIPOS>MOLECULE
IM6
   48    51     1     0     0
SMALL
No Charge or Current Charge


@<TRIPOS>ATOM
      1 N1          -7.9860    -1.7520    -0.1840 nc         1 IM6      -0.664000
      2 N3          -6.3600    -0.2430     0.0530 na         1 IM6      -0.075300
      3 C4          -7.5520     0.4120     0.3240 cd         1 IM6      -0.218000
      4 C5          -8.5190    -0.5450     0.1740 cc         1 IM6       0.233900
      5 C6          -5.0860     0.3580     0.0730 cc         1 IM6      -0.038200
      6 C7          -4.0300    -0.5580     0.0040 cd         1 IM6      -0.107000
      7 C10         -3.6420     2.3380     0.2000 cd         1 IM6      -0.063000
      8 C13         -0.6840     0.4090     0.0450 cc         1 IM6       0.216200
      9 C17          2.9920    -0.5570    -0.0370 ca         1 IM6      -0.157600
     10 C20          5.8350    -0.1860    -0.0230 ca         1 IM6      -0.035300
     11 C21          5.2630    -1.4740    -0.1100 ca         1 IM6      -0.120000
     12 C22          3.8710    -1.6580    -0.1170 ca         1 IM6      -0.067500
     13 C28          7.9590    -0.6220    -1.3330 c3         1 IM6      -0.083767
     14 O47          1.0290    -1.9300    -0.1230 o          1 IM6      -0.587100
     15 C16          1.4920    -0.7990    -0.0470 c          1 IM6       0.625700
     16 C27          7.3800    -0.0300    -0.0190 c3         1 IM6      -0.004700
     17 C36          7.8440     1.4510     0.0820 c3         1 IM6      -0.083767
     18 C32          7.9690    -0.7980     1.1950 c3         1 IM6      -0.083767
     19 C19          4.9510     0.9170     0.0570 ca         1 IM6      -0.120000
     20 C18          3.5570     0.7370     0.0500 ca         1 IM6      -0.067500
     21 N15          0.6920     0.3220     0.0330 ns         1 IM6      -0.387100
     22 C12         -1.5870    -0.6280    -0.0210 cd         1 IM6      -0.284100
     23 N8          -2.7740     0.0500     0.0280 na         1 IM6       0.145100
     24 N14         -1.2710     1.6480     0.1330 nc         1 IM6      -0.330600
     25 C9          -2.5690     1.4020     0.1240 cd         1 IM6      -0.067000
     26 C11         -4.9090     1.7940     0.1730 cc         1 IM6      -0.108000
     27 C2          -6.6720    -1.5680    -0.2590 cd         1 IM6       0.399400
     28 H1          -7.6430     1.4520     0.6080 h4         1 IM6       0.161000
     29 H2          -9.5890    -0.4380     0.3050 h4         1 IM6       0.041100
     30 H3          -4.0630    -1.6370    -0.0480 h4         1 IM6       0.161000
     31 H4          -3.4740     3.4080     0.2730 ha         1 IM6       0.149000
     32 H5           5.8990    -2.3540    -0.1740 ha         1 IM6       0.118500
     33 H6           3.4780    -2.6710    -0.1860 ha         1 IM6       0.123500
     34 H7           7.5260    -0.1190    -2.2060 hc         1 IM6       0.037256
     35 H8           9.0480    -0.4970    -1.3740 hc         1 IM6       0.037256
     36 H9           7.7470    -1.6940    -1.4220 hc         1 IM6       0.037256
     37 H10          7.4860     1.9160     1.0080 hc         1 IM6       0.037256
     38 H11          8.9390     1.5190     0.0820 hc         1 IM6       0.037256
     39 H12          7.4780     2.0390    -0.7690 hc         1 IM6       0.037256
     40 H13          7.7580    -1.8720     1.1370 hc         1 IM6       0.037256
     41 H14          9.0590    -0.6780     1.2440 hc         1 IM6       0.037256
     42 H15          7.5450    -0.4200     2.1340 hc         1 IM6       0.037256
     43 H16          5.3230     1.9350     0.1260 ha         1 IM6       0.118500
     44 H17          2.9330     1.6250     0.1150 ha         1 IM6       0.123500
     45 H18          1.1950     1.1930     0.0910 hn         1 IM6       0.341500
     46 H19         -1.4820    -1.7030    -0.0940 h4         1 IM6       0.262000
     47 H20         -5.7700     2.4520     0.2180 ha         1 IM6       0.138000
     48 H21         -5.9400    -2.3130    -0.5440 h5         1 IM6       0.058100
@<TRIPOS>BOND
     1     1     4 1   
     2     1    27 2   
     3     2     3 1   
     4     2     5 1   
     5     2    27 1   
     6     3     4 2   
     7     3    28 1   
     8     4    29 1   
     9     5     6 2   
    10     5    26 1   
    11     6    23 1   
    12     6    30 1   
    13     7    25 1   
    14     7    26 2   
    15     7    31 1   
    16     8    21 1   
    17     8    22 2   
    18     8    24 1   
    19     9    12 ar  
    20     9    15 1   
    21     9    20 ar  
    22    10    11 ar  
    23    10    16 1   
    24    10    19 ar  
    25    11    12 ar  
    26    11    32 1   
    27    12    33 1   
    28    13    16 1   
    29    13    34 1   
    30    13    35 1   
    31    13    36 1   
    32    14    15 2   
    33    15    21 1   
    34    16    17 1   
    35    16    18 1   
    36    17    37 1   
    37    17    38 1   
    38    17    39 1   
    39    18    40 1   
    40    18    41 1   
    41    18    42 1   
    42    19    20 ar  
    43    19    43 1   
    44    20    44 1   
    45    21    45 1   
    46    22    23 1   
    47    22    46 1   
    48    23    25 1   
    49    24    25 2   
    50    26    47 1   
    51    27    48 1   
@<TRIPOS>SUBSTRUCTURE
     1 IM6         1 TEMP              0 ****  ****    0 ROOT
