@<TRIPOS>MOLECULE
IM8
   55    57     1     0     0
SMALL
bcc


@<TRIPOS>ATOM
      1 C2           1.7570    -1.6310    -0.3840 ca         1 IM8      -0.136000
      2 C3           1.6400    -2.9790    -0.0690 ca         1 IM8       0.117100
      3 C4           0.4560    -3.4710     0.4950 ca         1 IM8      -0.193000
      4 C5          -0.6130    -2.6270     0.7720 ca         1 IM8      -0.084000
      5 C6           2.6830    -5.1170    -0.0050 c3         1 IM8       0.126700
      6 C7           0.5250     0.6350    -0.2740 cc         1 IM8      -0.115400
      7 C8          -0.7130     0.9660     0.1760 cd         1 IM8       0.021400
      8 C           -0.4800    -1.2790     0.4790 ca         1 IM8      -0.012400
      9 C1           0.6930    -0.7830    -0.1040 ca         1 IM8      -0.049800
     10 C10         -3.6910     0.5850     0.6300 ca         1 IM8      -0.156600
     11 C11         -4.6480     1.0870     1.5070 ca         1 IM8      -0.075000
     12 C12         -5.6890     1.8670     1.0350 ca         1 IM8      -0.133000
     13 C13         -5.7860     2.1090    -0.3280 ca         1 IM8       0.048400
     14 C14         -4.8610     1.5910    -1.2220 ca         1 IM8      -0.133000
     15 C15         -3.8080     0.8350    -0.7340 ca         1 IM8      -0.075000
     16 C16         -1.2710     2.3350     0.3550 c3         1 IM8      -0.042900
     17 C17          1.5810     1.5420    -0.8080 c3         1 IM8      -0.087200
     18 C18          2.8190     1.5030     0.0770 c          1 IM8       0.666100
     19 N           -1.3640    -0.2030     0.6120 n          1 IM8      -0.260200
     20 O            2.7230    -3.7440    -0.3370 os         1 IM8      -0.331900
     21 O1          -2.8950    -1.1740     1.9680 o          1 IM8      -0.527100
     22 O2           2.7450     1.7150     1.2780 o          1 IM8      -0.602100
     23 O3           5.2420    -1.3500    -0.4840 oh         1 IM8      -0.611800
     24 CL          -7.0910     3.0730    -0.9250 cl         1 IM8      -0.098400
     25 N2           3.9650     1.2170    -0.5580 ns         1 IM8      -0.564900
     26 C19          5.2260     0.9710     0.1170 c3         1 IM8       0.111700
     27 C20          5.2990    -0.4680     0.6160 c3         1 IM8       0.114400
     28 C21          6.3880     1.3400    -0.8010 c3         1 IM8      -0.084400
     29 C22          6.4160     2.8170    -1.1690 c3         1 IM8      -0.088100
     30 H2           2.6740    -1.2630    -0.8260 ha         1 IM8       0.153000
     31 H4           0.3480    -4.5190     0.7360 ha         1 IM8       0.136000
     32 H5          -1.5050    -3.0390     1.2170 ha         1 IM8       0.155000
     33 H61          3.6500    -5.5300    -0.2810 h1         1 IM8       0.039700
     34 H62          2.5250    -5.2750     1.0650 h1         1 IM8       0.039700
     35 H63          1.9050    -5.6500    -0.5580 h1         1 IM8       0.039700
     36 H11         -4.5740     0.8880     2.5680 ha         1 IM8       0.152000
     37 H12         -6.4200     2.2760     1.7200 ha         1 IM8       0.154500
     38 H14         -4.9550     1.7740    -2.2830 ha         1 IM8       0.154500
     39 H15         -3.0840     0.4310    -1.4320 ha         1 IM8       0.152000
     40 H161        -1.9830     2.6160    -0.4190 hc         1 IM8       0.056033
     41 H162        -1.7710     2.4440     1.3180 hc         1 IM8       0.056033
     42 H163        -0.4580     3.0570     0.3310 hc         1 IM8       0.056033
     43 H171         1.2280     2.5740    -0.8450 hc         1 IM8       0.062200
     44 H172         1.8240     1.2640    -1.8370 hc         1 IM8       0.062200
     45 HO3          4.9220    -2.2030    -0.1780 ho         1 IM8       0.416000
     46 HN2          3.9180     0.9910    -1.5390 hn         1 IM8       0.315500
     47 H19          5.2630     1.6160     0.9980 h1         1 IM8       0.077700
     48 H201         6.2310    -0.5920     1.1850 h1         1 IM8       0.035200
     49 H202         4.4730    -0.6410     1.3130 h1         1 IM8       0.035200
     50 H211         6.3560     0.7280    -1.7060 hc         1 IM8       0.051700
     51 H212         7.3160     1.0750    -0.2880 hc         1 IM8       0.051700
     52 H221         7.2930     3.0500    -1.7740 hc         1 IM8       0.034033
     53 H222         5.5360     3.1090    -1.7430 hc         1 IM8       0.034033
     54 H223         6.4520     3.4430    -0.2760 hc         1 IM8       0.034033
     55 C9          -2.6370    -0.3180     1.1510 c          1 IM8       0.703700
@<TRIPOS>BOND
     1     1     2 ar  
     2     1     9 ar  
     3     1    30 1   
     4     2     3 ar  
     5     2    20 1   
     6     3     4 ar  
     7     3    31 1   
     8     4     8 ar  
     9     4    32 1   
    10     5    20 1   
    11     5    33 1   
    12     5    34 1   
    13     5    35 1   
    14     6     7 2   
    15     6     9 1   
    16     6    17 1   
    17     7    16 1   
    18     7    19 1   
    19     8     9 ar  
    20     8    19 1   
    21    10    11 ar  
    22    10    15 ar  
    23    10    55 1   
    24    11    12 ar  
    25    11    36 1   
    26    12    13 ar  
    27    12    37 1   
    28    13    14 ar  
    29    13    24 1   
    30    14    15 ar  
    31    14    38 1   
    32    15    39 1   
    33    16    40 1   
    34    16    41 1   
    35    16    42 1   
    36    17    18 1   
    37    17    43 1   
    38    17    44 1   
    39    18    22 2   
    40    18    25 1   
    41    19    55 1   
    42    21    55 2   
    43    23    27 1   
    44    23    45 1   
    45    25    26 1   
    46    25    46 1   
    47    26    27 1   
    48    26    28 1   
    49    26    47 1   
    50    27    48 1   
    51    27    49 1   
    52    28    29 1   
    53    28    50 1   
    54    28    51 1   
    55    29    52 1   
    56    29    53 1   
    57    29    54 1   
@<TRIPOS>SUBSTRUCTURE
     1 IM8         1 TEMP              0 ****  ****    0 ROOT
