@<TRIPOS>MOLECULE
IM8
   55    57     1     0     0
SMALL
No Charge or Current Charge


@<TRIPOS>ATOM
      1 C2           1.6480    -1.9700    -0.5670 ca         1 IM8      -0.118000
      2 C3           1.4940    -3.3060    -0.1490 ca         1 IM8       0.117100
      3 C4           0.3280    -3.6930     0.5630 ca         1 IM8      -0.175000
      4 C5          -0.6760    -2.7460     0.8570 ca         1 IM8      -0.066000
      5 C6           2.4450    -5.5830    -0.0790 c3         1 IM8       0.149900
      6 C7           0.5640     0.3600    -0.5600 cc         1 IM8      -0.115400
      7 C8          -0.6350     0.7740     0.0100 cd         1 IM8       0.021400
      8 C           -0.4900    -1.4170     0.4390 ca         1 IM8      -0.105000
      9 C1           0.6350    -1.0490    -0.2620 ca         1 IM8      -0.049800
     10 C10         -3.6830     0.7180     0.7330 ca         1 IM8      -0.156600
     11 C11         -4.6300     1.2490     1.6360 ca         1 IM8      -0.057000
     12 C12         -5.6270     2.1320     1.1850 ca         1 IM8      -0.115000
     13 C13         -5.6990     2.4770    -0.1730 ca         1 IM8       0.140000
     14 C14         -4.7830     1.9330    -1.0850 ca         1 IM8      -0.115000
     15 C15         -3.7840     1.0500    -0.6390 ca         1 IM8      -0.057000
     16 C16         -1.0240     2.2360     0.1200 c3         1 IM8      -0.042900
     17 C17          1.6310     1.1860    -1.2430 c3         1 IM8      -0.087200
     18 C18          2.7940     1.5550    -0.3130 c          1 IM8       0.599100
     19 N           -1.3660    -0.2930     0.5870 n          1 IM8      -0.100600
     20 O            2.5020    -4.1970    -0.4600 os         1 IM8      -0.355100
     21 O1          -2.9250    -1.0520     2.1150 o          1 IM8      -0.527100
     22 O2           2.6910     2.3980     0.5680 o          1 IM8      -0.602100
     23 O3           5.9360    -1.2400    -0.5160 oh         1 IM8      -0.674000
     24 Cl          -6.9490     3.5800    -0.7340 cl         1 IM8      -0.190000
     25 N2           3.9630     0.8640    -0.5390 ns         1 IM8      -0.497900
     26 C19          5.1980     0.9940     0.2440 c3         1 IM8       0.111700
     27 C20          5.7310    -0.4100     0.6440 c3         1 IM8       0.137600
     28 C21          6.2550     1.8450    -0.5070 c3         1 IM8      -0.084400
     29 C22          5.8080     3.2900    -0.8160 c3         1 IM8      -0.088100
     30 H2           2.5360    -1.6690    -1.1130 ha         1 IM8       0.135000
     31 H4           0.1830    -4.7180     0.8900 ha         1 IM8       0.118000
     32 H5          -1.5700    -3.0540     1.3930 ha         1 IM8       0.137000
     33 H61          3.3450    -6.1090    -0.4230 h1         1 IM8       0.039700
     34 H62          2.3870    -5.6870     1.0120 h1         1 IM8       0.039700
     35 H63          1.5720    -6.0760    -0.5270 h1         1 IM8       0.039700
     36 H11         -4.5880     0.9870     2.6920 ha         1 IM8       0.134000
     37 H12         -6.3460     2.5470     1.8880 ha         1 IM8       0.136500
     38 H14         -4.8510     2.1900    -2.1390 ha         1 IM8       0.136500
     39 H15         -3.0970     0.6180    -1.3650 ha         1 IM8       0.134000
     40 H161        -1.5180     2.5880    -0.7920 hc         1 IM8       0.056033
     41 H162        -1.6850     2.4270     0.9720 hc         1 IM8       0.056033
     42 H163        -0.1410     2.8660     0.2750 hc         1 IM8       0.056033
     43 H171         1.1870     2.1130    -1.6210 hc         1 IM8       0.062200
     44 H172         2.0140     0.6160    -2.0970 hc         1 IM8       0.062200
     45 HO3          6.2500    -2.1140    -0.1930 ho         1 IM8       0.455000
     46 HN2          3.9560     0.1750    -1.2810 hn         1 IM8       0.315500
     47 H19          4.9630     1.5160     1.1820 h1         1 IM8       0.077700
     48 H201         6.6680    -0.2950     1.2050 h1         1 IM8       0.035200
     49 H202         5.0010    -0.8820     1.3160 h1         1 IM8       0.035200
     50 H211         6.5250     1.3480    -1.4470 hc         1 IM8       0.051700
     51 H212         7.1690     1.8870     0.0990 hc         1 IM8       0.051700
     52 H221         6.6250     3.8490    -1.2870 hc         1 IM8       0.034033
     53 H222         4.9520     3.3000    -1.5020 hc         1 IM8       0.034033
     54 H223         5.5210     3.8130     0.1040 hc         1 IM8       0.034033
     55 C9          -2.6340    -0.2540     1.2310 c          1 IM8       0.636700
@<TRIPOS>BOND
     1     1     2 ar  
     2     1     9 ar  
     3     1    30 1   
     4     2     3 ar  
     5     2    20 1   
     6     3     4 ar  
     7     3    31 1   
     8     4     8 ar  
     9     4    32 1   
    10     5    20 1   
    11     5    33 1   
    12     5    34 1   
    13     5    35 1   
    14     6     7 2   
    15     6     9 1   
    16     6    17 1   
    17     7    16 1   
    18     7    19 1   
    19     8     9 ar  
    20     8    19 1   
    21    10    11 ar  
    22    10    15 ar  
    23    10    55 1   
    24    11    12 ar  
    25    11    36 1   
    26    12    13 ar  
    27    12    37 1   
    28    13    14 ar  
    29    13    24 1   
    30    14    15 ar  
    31    14    38 1   
    32    15    39 1   
    33    16    40 1   
    34    16    41 1   
    35    16    42 1   
    36    17    18 1   
    37    17    43 1   
    38    17    44 1   
    39    18    22 2   
    40    18    25 1   
    41    19    55 1   
    42    21    55 2   
    43    23    27 1   
    44    23    45 1   
    45    25    26 1   
    46    25    46 1   
    47    26    27 1   
    48    26    28 1   
    49    26    47 1   
    50    27    48 1   
    51    27    49 1   
    52    28    29 1   
    53    28    50 1   
    54    28    51 1   
    55    29    52 1   
    56    29    53 1   
    57    29    54 1   
@<TRIPOS>SUBSTRUCTURE
     1 IM8         1 TEMP              0 ****  ****    0 ROOT
