@<TRIPOS>MOLECULE
IM9
   61    64     1     0     0
SMALL
No Charge or Current Charge


@<TRIPOS>ATOM
      1 C1           0.3950    28.1510    12.1910 c3         1 IM9      -0.104100
      2 C2           0.0660    28.1590    10.6810 c3         1 IM9       0.074300
      3 C3           0.1860    26.7560    10.0460 c3         1 IM9      -0.104100
      4 N4          -1.2210    28.8270    10.3420 na         1 IM9      -0.130500
      5 C5          -2.4820    28.5840    10.8870 cc         1 IM9       0.422800
      6 C6          -2.8250    27.5570    11.9320 c3         1 IM9      -0.122400
      7 N7          -3.3960    29.3870    10.3610 nd         1 IM9      -0.685000
      8 C8          -2.7360    30.1770     9.4470 cd         1 IM9       0.275900
      9 C9          -1.4000    29.8770     9.4470 cc         1 IM9      -0.297500
     10 C10         -0.5010    30.4610     8.4430 ca         1 IM9       0.263500
     11 C11         -0.7120    31.7690     7.9640 ca         1 IM9      -0.266000
     12 C12          0.1880    32.2780     7.0150 ca         1 IM9       0.153900
     13 N13          1.2240    31.5450     6.5670 nb         1 IM9      -0.245000
     14 C14          1.3360    30.3050     7.0680 ca         1 IM9       0.392900
     15 N15          2.4390    29.5890     6.6240 nu         1 IM9      -0.928900
     16 C16          2.8610    28.2670     6.7990 ca         1 IM9       0.295000
     17 C17          1.9440    27.2050     6.8970 ca         1 IM9      -0.127000
     18 C18          2.3950    25.8850     7.0810 ca         1 IM9      -0.122000
     19 C19          3.7730    25.6020     7.1580 ca         1 IM9       0.247000
     20 C20          4.6880    26.6650     7.0360 ca         1 IM9      -0.122000
     21 C21          4.2360    27.9860     6.8520 ca         1 IM9      -0.127000
     22 N22          4.2450    24.2810     7.3520 nh         1 IM9      -0.778400
     23 C23          3.4210    23.2640     8.0790 c6         1 IM9       0.170300
     24 C24          4.3000    22.1480     8.7120 c6         1 IM9       0.092500
     25 N25          5.2220    21.5430     7.7080 n          1 IM9      -0.398800
     26 C26          6.0790    22.5670     7.0500 c6         1 IM9       0.092500
     27 C27          5.2260    23.6860     6.3910 c6         1 IM9       0.170300
     28 C28          5.0950    20.2270     7.2080 c          1 IM9       0.564100
     29 O29          5.7340    19.8620     6.2250 o          1 IM9      -0.615100
     30 C30          4.1660    19.2180     7.9490 c3         1 IM9       0.088600
     31 O31          4.2600    17.8800     7.4010 oh         1 IM9      -0.655000
     32 N32          0.5340    29.7330     7.9830 nb         1 IM9      -0.260000
     33 H1C1         1.4460    27.8780    12.3460 hc         1 IM9       0.046200
     34 H1C2         0.2380    29.1450    12.6270 hc         1 IM9       0.046200
     35 H1C3        -0.2150    27.4260    12.7390 hc         1 IM9       0.046200
     36 H2           0.8610    28.7680    10.2360 h1         1 IM9       0.098700
     37 H3C1        -0.0570    26.7950     8.9790 hc         1 IM9       0.046200
     38 H3C2         1.2100    26.3750    10.1480 hc         1 IM9       0.046200
     39 H3C3        -0.4910    26.0390    10.5220 hc         1 IM9       0.046200
     40 H6C1        -2.3340    26.5990    11.7350 hc         1 IM9       0.055367
     41 H6C2        -2.5290    27.9050    12.9280 hc         1 IM9       0.055367
     42 H6C3        -3.9040    27.3700    11.9550 hc         1 IM9       0.055367
     43 H8          -3.2660    30.8970     8.8350 h4         1 IM9       0.038100
     44 H11         -1.5310    32.3830     8.3250 ha         1 IM9       0.142000
     45 H12          0.0840    33.2850     6.6150 h4         1 IM9       0.025100
     46 H15          3.1260    30.1860     6.1640 hn         1 IM9       0.512000
     47 H17          0.8790    27.3960     6.8140 ha         1 IM9       0.130000
     48 H21          4.9590    28.7930     6.7710 ha         1 IM9       0.130000
     49 H18          1.6650    25.0840     7.1490 ha         1 IM9       0.115000
     50 H20          5.7550    26.4710     7.1000 ha         1 IM9       0.115000
     51 H231         2.8420    23.7440     8.8820 h1         1 IM9       0.047450
     52 H232         2.7040    22.8010     7.3860 h1         1 IM9       0.047450
     53 H271         4.6870    23.2590     5.5320 h1         1 IM9       0.047450
     54 H272         5.9060    24.4540     5.9950 h1         1 IM9       0.047450
     55 H241         4.9020    22.5890     9.5180 h1         1 IM9       0.065450
     56 H242         3.6480    21.3980     9.1770 h1         1 IM9       0.065450
     57 H261         6.7350    23.0190     7.8070 h1         1 IM9       0.065450
     58 H262         6.7310    22.1120     6.2920 h1         1 IM9       0.065450
     59 H301         4.4470    19.2200     9.0100 h1         1 IM9       0.051700
     60 H302         3.1370    19.5940     7.8720 h1         1 IM9       0.051700
     61 H31          4.8570    17.9570     6.6180 ho         1 IM9       0.477000
@<TRIPOS>BOND
     1     1     2 1   
     2     1    33 1   
     3     1    34 1   
     4     1    35 1   
     5     2     3 1   
     6     2     4 1   
     7     2    36 1   
     8     3    37 1   
     9     3    38 1   
    10     3    39 1   
    11     4     5 1   
    12     4     9 1   
    13     5     6 1   
    14     5     7 2   
    15     6    40 1   
    16     6    41 1   
    17     6    42 1   
    18     7     8 1   
    19     8     9 2   
    20     8    43 1   
    21     9    10 1   
    22    10    11 ar  
    23    10    32 ar  
    24    11    12 ar  
    25    11    44 1   
    26    12    13 ar  
    27    12    45 1   
    28    13    14 ar  
    29    14    15 1   
    30    14    32 ar  
    31    15    16 1   
    32    15    46 1   
    33    16    17 ar  
    34    16    21 ar  
    35    17    18 ar  
    36    17    47 1   
    37    18    19 ar  
    38    18    49 1   
    39    19    20 ar  
    40    19    22 1   
    41    20    21 ar  
    42    20    50 1   
    43    21    48 1   
    44    22    23 1   
    45    22    27 1   
    46    23    24 1   
    47    23    51 1   
    48    23    52 1   
    49    24    25 1   
    50    24    55 1   
    51    24    56 1   
    52    25    26 1   
    53    25    28 1   
    54    26    27 1   
    55    26    57 1   
    56    26    58 1   
    57    27    53 1   
    58    27    54 1   
    59    28    29 2   
    60    28    30 1   
    61    30    31 1   
    62    30    59 1   
    63    30    60 1   
    64    31    61 1   
@<TRIPOS>SUBSTRUCTURE
     1 IM9         1 TEMP              0 ****  ****    0 ROOT
