@<TRIPOS>MOLECULE
IM9
   61    64     1     0     0
SMALL
bcc


@<TRIPOS>ATOM
      1 C1           0.3710    28.4510    11.8870 c3         1 IM9      -0.104100
      2 C2          -0.0540    28.0250    10.4880 c3         1 IM9       0.045000
      3 C3          -0.0740    26.5140    10.3040 c3         1 IM9      -0.104100
      4 N4          -1.3260    28.6570    10.1020 na         1 IM9      -0.151900
      5 C5          -2.5510    28.4140    10.6310 cc         1 IM9       0.422800
      6 C6          -2.8930    27.3120    11.5710 c3         1 IM9      -0.122400
      7 N7          -3.4470    29.2740    10.1930 nd         1 IM9      -0.685000
      8 C8          -2.7840    30.1150     9.3690 cd         1 IM9       0.341200
      9 C9          -1.4600    29.7660     9.2860 cc         1 IM9      -0.312100
     10 C10         -0.4480    30.3950     8.4500 ca         1 IM9       0.591800
     11 C11         -0.5700    31.7440     8.1180 ca         1 IM9      -0.414600
     12 C12          0.3940    32.2540     7.2660 ca         1 IM9       0.482200
     13 N13          1.4020    31.5380     6.7970 nb         1 IM9      -0.771000
     14 C14          1.4440    30.2600     7.1910 ca         1 IM9       0.918900
     15 N15          2.5050    29.5590     6.7150 nu         1 IM9      -0.735300
     16 C16          2.9130    28.2450     6.9510 ca         1 IM9       0.156600
     17 C17          2.0940    27.2240     7.4210 ca         1 IM9      -0.145000
     18 C18          2.5960    25.9390     7.5980 ca         1 IM9      -0.140000
     19 C19          3.9250    25.6240     7.3200 ca         1 IM9       0.108600
     20 C20          4.7390    26.6570     6.8430 ca         1 IM9      -0.140000
     21 C21          4.2450    27.9320     6.6600 ca         1 IM9      -0.145000
     22 N22          4.4700    24.3460     7.5220 nh         1 IM9      -0.640000
     23 C23          3.6720    23.4010     8.2740 c6         1 IM9       0.170300
     24 C24          4.5280    22.2210     8.7020 c6         1 IM9       0.092500
     25 N25          5.1540    21.6050     7.5480 n          1 IM9      -0.465800
     26 C26          5.9390    22.5410     6.7630 c6         1 IM9       0.092500
     27 C27          5.0830    23.7260     6.3550 c6         1 IM9       0.170300
     28 C28          4.9850    20.3310     7.1720 c          1 IM9       0.631100
     29 O29          5.5060    19.8420     6.1750 o          1 IM9      -0.615100
     30 C30          4.0990    19.4340     8.0330 c3         1 IM9       0.065400
     31 O31          4.0660    18.1440     7.5020 oh         1 IM9      -0.592800
     32 N32          0.5570    29.6610     7.9780 nb         1 IM9      -0.786000
     33 H1C1         1.3770    28.0780    12.0840 hc         1 IM9       0.046200
     34 H1C2         0.3940    29.5370    11.9760 hc         1 IM9       0.046200
     35 H1C3        -0.2820    28.0570    12.6650 hc         1 IM9       0.046200
     36 H2           0.6760    28.4170     9.7870 h1         1 IM9       0.098700
     37 H3C1        -0.4330    26.2390     9.3120 hc         1 IM9       0.046200
     38 H3C2         0.9440    26.1390    10.4070 hc         1 IM9       0.046200
     39 H3C3        -0.6870    26.0010    11.0440 hc         1 IM9       0.046200
     40 H6C1        -2.9100    26.3450    11.0690 hc         1 IM9       0.055367
     41 H6C2        -2.2040    27.2360    12.4100 hc         1 IM9       0.055367
     42 H6C3        -3.8880    27.4970    11.9690 hc         1 IM9       0.055367
     43 H8          -3.2850    30.9140     8.8420 h4         1 IM9       0.038100
     44 H11         -1.3590    32.3670     8.5090 ha         1 IM9       0.160000
     45 H12          0.3550    33.2930     6.9580 h4         1 IM9       0.025100
     46 H15          3.1470    30.1230     6.1800 hn         1 IM9       0.456800
     47 H17          1.0560    27.4120     7.6420 ha         1 IM9       0.148000
     48 H21          4.9120    28.7080     6.3000 ha         1 IM9       0.148000
     49 H18          1.9110    25.1800     7.9500 ha         1 IM9       0.133000
     50 H20          5.7850    26.4720     6.6330 ha         1 IM9       0.133000
     51 H231         3.2870    23.8850     9.1730 h1         1 IM9       0.047450
     52 H232         2.8080    23.0320     7.7000 h1         1 IM9       0.047450
     53 H271         4.3170    23.3930     5.6380 h1         1 IM9       0.047450
     54 H272         5.7180    24.4450     5.8390 h1         1 IM9       0.047450
     55 H241         5.3080    22.5660     9.3860 h1         1 IM9       0.065450
     56 H242         3.9110    21.5110     9.2450 h1         1 IM9       0.065450
     57 H261         6.7880    22.8830     7.3610 h1         1 IM9       0.065450
     58 H262         6.3280    22.0440     5.8780 h1         1 IM9       0.065450
     59 H301         4.4860    19.4180     9.0590 h1         1 IM9       0.051700
     60 H302         3.0910    19.8630     8.0790 h1         1 IM9       0.051700
     61 H31          4.6000    18.1730     6.6930 ho         1 IM9       0.438000
@<TRIPOS>BOND
     1     1     2 1   
     2     1    33 1   
     3     1    34 1   
     4     1    35 1   
     5     2     3 1   
     6     2     4 1   
     7     2    36 1   
     8     3    37 1   
     9     3    38 1   
    10     3    39 1   
    11     4     5 1   
    12     4     9 1   
    13     5     6 1   
    14     5     7 2   
    15     6    40 1   
    16     6    41 1   
    17     6    42 1   
    18     7     8 1   
    19     8     9 2   
    20     8    43 1   
    21     9    10 1   
    22    10    11 ar  
    23    10    32 ar  
    24    11    12 ar  
    25    11    44 1   
    26    12    13 ar  
    27    12    45 1   
    28    13    14 ar  
    29    14    15 1   
    30    14    32 ar  
    31    15    16 1   
    32    15    46 1   
    33    16    17 ar  
    34    16    21 ar  
    35    17    18 ar  
    36    17    47 1   
    37    18    19 ar  
    38    18    49 1   
    39    19    20 ar  
    40    19    22 1   
    41    20    21 ar  
    42    20    50 1   
    43    21    48 1   
    44    22    23 1   
    45    22    27 1   
    46    23    24 1   
    47    23    51 1   
    48    23    52 1   
    49    24    25 1   
    50    24    55 1   
    51    24    56 1   
    52    25    26 1   
    53    25    28 1   
    54    26    27 1   
    55    26    57 1   
    56    26    58 1   
    57    27    53 1   
    58    27    54 1   
    59    28    29 2   
    60    28    30 1   
    61    30    31 1   
    62    30    59 1   
    63    30    60 1   
    64    31    61 1   
@<TRIPOS>SUBSTRUCTURE
     1 IM9         1 TEMP              0 ****  ****    0 ROOT
