@<TRIPOS>MOLECULE
IMA
   77    81     1     0     0
SMALL
No Charge or Current Charge


@<TRIPOS>ATOM
      1 C11         -3.3580    -1.4120    -0.7710 ca         1 IMA       0.123100
      2 C12         -3.9250    -0.2560    -1.3750 ca         1 IMA      -0.153000
      3 C13         -3.1030     0.8250    -1.7630 ca         1 IMA      -0.085000
      4 C14         -1.7180     0.7250    -1.5400 ca         1 IMA      -0.061200
      5 C15         -1.1830    -0.3870    -0.9550 ca         1 IMA      -0.070800
      6 C16         -1.9670    -1.4760    -0.5570 ca         1 IMA      -0.108000
      7 C17          0.2280    -0.1860    -0.8480 cc         1 IMA      -0.216200
      8 N18         -0.7130     1.6470    -1.8240 na         1 IMA      -0.052700
      9 C19          0.5130     1.0760    -1.3850 cd         1 IMA      -0.139300
     10 C20         -0.9490     2.9700    -2.4400 c3         1 IMA       0.122900
     11 C21          1.8750     1.6920    -1.4690 c          1 IMA       0.639300
     12 N22          2.8780     0.9090    -0.9460 ns         1 IMA      -0.507900
     13 C23          4.2890     1.2930    -0.9130 c3         1 IMA       0.133300
     14 C24          5.1390     0.2110    -0.2640 ca         1 IMA      -0.047300
     15 O27          2.1090     2.7890    -1.9550 o          1 IMA      -0.587100
     16 C28         -1.0230     4.1250    -1.4410 ca         1 IMA      -0.134300
     17 C31         -1.7720     5.0540     0.7130 ca         1 IMA      -0.148900
     18 C32         -1.7090     3.9870    -0.2150 ca         1 IMA      -0.052000
     19 C33         -0.4110     5.3530    -1.7530 ca         1 IMA      -0.074000
     20 C34         -0.4840     6.4260    -0.8530 ca         1 IMA      -0.125000
     21 C35         -1.1630     6.2840     0.3680 ca         1 IMA      -0.088000
     22 C36         -2.5340     4.8920     1.9960 ce         1 IMA       0.652800
     23 N37         -2.2320     5.7150     3.0240 nv         1 IMA      -1.076200
     24 N38         -3.3800     3.9670     2.1930 n2         1 IMA      -0.815100
     25 C39          6.4780    -1.8180    -0.4420 ca         1 IMA      -0.091500
     26 C40          6.7110    -1.8150     0.9480 ca         1 IMA       0.107000
     27 C41          6.1420    -0.7830     1.7280 ca         1 IMA      -0.091500
     28 C42          5.3630     0.2200     1.1240 ca         1 IMA      -0.075500
     29 C43          5.6990    -0.8160    -1.0450 ca         1 IMA      -0.075500
     30 N44          7.5680    -2.9350     1.5480 n4         1 IMA      -0.537000
     31 C45          8.9770    -2.9010     0.9340 c3         1 IMA       0.082900
     32 C49          6.9030    -4.2970     1.2920 c3         1 IMA       0.082900
     33 C53          7.7370    -2.7950     3.0720 c3         1 IMA       0.082900
     34 O1          -4.1200    -2.4920    -0.3750 os         1 IMA      -0.345100
     35 C1          -5.5470    -2.5270    -0.5470 c3         1 IMA       0.211900
     36 C2          -6.0670    -3.8530    -0.0080 ca         1 IMA      -0.099300
     37 C3          -6.4540    -3.9690     1.3420 ca         1 IMA      -0.085500
     38 C4          -6.9350    -5.1930     1.8390 ca         1 IMA      -0.114000
     39 C5          -7.0300    -6.3090     0.9900 ca         1 IMA      -0.096000
     40 C6          -6.6440    -6.2000    -0.3570 ca         1 IMA      -0.114000
     41 C7          -6.1630    -4.9760    -0.8540 ca         1 IMA      -0.085500
     42 H12         -4.9940    -0.1790    -1.5480 ha         1 IMA       0.123000
     43 H13         -3.5430     1.7080    -2.2180 ha         1 IMA       0.122000
     44 H16         -1.5170    -2.3500    -0.0930 ha         1 IMA       0.130000
     45 H17          0.9390    -0.8900    -0.4240 ha         1 IMA       0.196000
     46 H201        -0.1430     3.1570    -3.1600 h1         1 IMA       0.079200
     47 H202        -1.8780     2.9380    -3.0200 h1         1 IMA       0.079200
     48 H22          2.6090     0.0150    -0.5600 hn         1 IMA       0.329500
     49 H231         4.3930     2.2330    -0.3540 h1         1 IMA       0.081200
     50 H232         4.6370     1.4740    -1.9390 h1         1 IMA       0.081200
     51 H32         -2.1930     3.0430     0.0240 ha         1 IMA       0.146000
     52 H33          0.1190     5.4780    -2.6950 ha         1 IMA       0.125000
     53 H34         -0.0170     7.3760    -1.1050 ha         1 IMA       0.120000
     54 H35         -1.2210     7.1410     1.0340 ha         1 IMA       0.121000
     55 H371        -1.3640     6.2270     2.9170 hn         1 IMA       0.459500
     56 H372        -2.4040     5.3530     3.9550 hn         1 IMA       0.459500
     57 H38         -3.9010     4.1930     3.0470 hn         1 IMA       0.376400
     58 H39          6.9020    -2.6030    -1.0630 ha         1 IMA       0.132500
     59 H41          6.2890    -0.7360     2.8020 ha         1 IMA       0.132500
     60 H42          4.9300     1.0060     1.7400 ha         1 IMA       0.150500
     61 H43          5.5300    -0.8400    -2.1200 ha         1 IMA       0.150500
     62 H451         8.9070    -3.0520    -0.1450 hx         1 IMA       0.095922
     63 H452         9.4330    -1.9300     1.1380 hx         1 IMA       0.095922
     64 H453         9.5850    -3.6940     1.3760 hx         1 IMA       0.095922
     65 H491         7.5130    -5.0880     1.7320 hx         1 IMA       0.095922
     66 H492         5.9100    -4.3020     1.7460 hx         1 IMA       0.095922
     67 H493         6.8120    -4.4610     0.2160 hx         1 IMA       0.095922
     68 H531         8.2220    -1.8420     3.2950 hx         1 IMA       0.095922
     69 H532         6.7560    -2.8310     3.5490 hx         1 IMA       0.095922
     70 H533         8.3550    -3.6150     3.4450 hx         1 IMA       0.095922
     71 HC11        -6.0230    -1.7000    -0.0040 h1         1 IMA       0.040700
     72 HC12        -5.8110    -2.4360    -1.6090 h1         1 IMA       0.040700
     73 HC3         -6.3810    -3.1110     2.0060 ha         1 IMA       0.114000
     74 HC4         -7.2330    -5.2770     2.8820 ha         1 IMA       0.116000
     75 HC5         -7.4020    -7.2560     1.3750 ha         1 IMA       0.115000
     76 HC6         -6.7160    -7.0630    -1.0150 ha         1 IMA       0.116000
     77 HC7         -5.8630    -4.9000    -1.8980 ha         1 IMA       0.114000
@<TRIPOS>BOND
     1     1     2 ar  
     2     1     6 ar  
     3     1    34 1   
     4     2     3 ar  
     5     2    42 1   
     6     3     4 ar  
     7     3    43 1   
     8     4     5 ar  
     9     4     8 1   
    10     5     6 ar  
    11     5     7 1   
    12     6    44 1   
    13     7     9 2   
    14     7    45 1   
    15     8     9 1   
    16     8    10 1   
    17     9    11 1   
    18    10    16 1   
    19    10    46 1   
    20    10    47 1   
    21    11    12 1   
    22    11    15 2   
    23    12    13 1   
    24    12    48 1   
    25    13    14 1   
    26    13    49 1   
    27    13    50 1   
    28    14    28 ar  
    29    14    29 ar  
    30    16    18 ar  
    31    16    19 ar  
    32    17    18 ar  
    33    17    21 ar  
    34    17    22 1   
    35    18    51 1   
    36    19    20 ar  
    37    19    52 1   
    38    20    21 ar  
    39    20    53 1   
    40    21    54 1   
    41    22    23 1   
    42    22    24 2   
    43    23    55 1   
    44    23    56 1   
    45    24    57 1   
    46    25    26 ar  
    47    25    29 ar  
    48    25    58 1   
    49    26    27 ar  
    50    26    30 1   
    51    27    28 ar  
    52    27    59 1   
    53    28    60 1   
    54    29    61 1   
    55    30    31 1   
    56    30    32 1   
    57    30    33 1   
    58    31    62 1   
    59    31    63 1   
    60    31    64 1   
    61    32    65 1   
    62    32    66 1   
    63    32    67 1   
    64    33    68 1   
    65    33    69 1   
    66    33    70 1   
    67    34    35 1   
    68    35    36 1   
    69    35    71 1   
    70    35    72 1   
    71    36    37 ar  
    72    36    41 ar  
    73    37    38 ar  
    74    37    73 1   
    75    38    39 ar  
    76    38    74 1   
    77    39    40 ar  
    78    39    75 1   
    79    40    41 ar  
    80    40    76 1   
    81    41    77 1   
@<TRIPOS>SUBSTRUCTURE
     1 IMA         1 TEMP              0 ****  ****    0 ROOT
