@<TRIPOS>MOLECULE
IMA
   77    81     1     0     0
SMALL
bcc


@<TRIPOS>ATOM
      1 C11         -3.7470    -1.7350    -1.0440 ca         1 IMA       0.123100
      2 C12         -4.1630    -0.5970    -1.7630 ca         1 IMA      -0.171000
      3 C13         -3.2720     0.4080    -2.0910 ca         1 IMA      -0.103000
      4 C14         -1.9460     0.2710    -1.6950 ca         1 IMA      -0.061200
      5 C15         -1.5200    -0.8560    -0.9610 ca         1 IMA      -0.070800
      6 C16         -2.4290    -1.8670    -0.6410 ca         1 IMA      -0.126000
      7 C17         -0.1350    -0.6630    -0.6860 cc         1 IMA      -0.166200
      8 N18         -0.8640     1.0940    -1.8870 na         1 IMA      -0.023400
      9 C19          0.2170     0.5280    -1.2600 cd         1 IMA      -0.139300
     10 C20         -0.9090     2.4410    -2.4200 c3         1 IMA       0.093600
     11 C21          1.5580     1.1580    -1.3190 c          1 IMA       0.706300
     12 N22          2.2250     1.1300    -0.1530 ns         1 IMA      -0.574900
     13 C23          3.5250     1.7220     0.0400 c3         1 IMA       0.133300
     14 C24          4.5810     0.7200     0.4280 ca         1 IMA      -0.047300
     15 O27          1.9950     1.6380    -2.3540 o          1 IMA      -0.587100
     16 C28         -0.5060     3.4690    -1.3920 ca         1 IMA      -0.134300
     17 C31         -0.6590     4.3520     0.8560 ca         1 IMA      -0.148900
     18 C32         -1.0420     3.4280    -0.1110 ca         1 IMA      -0.070000
     19 C33          0.4160     4.4580    -1.7110 ca         1 IMA      -0.092000
     20 C34          0.7920     5.3950    -0.7610 ca         1 IMA      -0.143000
     21 C35          0.2650     5.3410     0.5200 ca         1 IMA      -0.106000
     22 C36         -1.2550     4.2680     2.2190 ce         1 IMA       0.652800
     23 N37         -0.5040     4.8190     3.2170 nv         1 IMA      -0.965800
     24 N38         -2.4120     3.7420     2.3490 n2         1 IMA      -0.815100
     25 C39          5.7210    -1.3790     0.0740 ca         1 IMA      -0.109500
     26 C40          6.6060    -1.0740     1.1010 ca         1 IMA      -0.031400
     27 C41          6.4810     0.1130     1.7980 ca         1 IMA      -0.109500
     28 C42          5.4680     1.0000     1.4550 ca         1 IMA      -0.093500
     29 C43          4.7180    -0.4860    -0.2550 ca         1 IMA      -0.093500
     30 N44          7.6810    -2.0460     1.4170 n4         1 IMA      -0.483200
     31 C45          8.5650    -2.2160     0.2180 c3         1 IMA       0.111100
     32 C49          7.0800    -3.3680     1.7850 c3         1 IMA       0.111100
     33 C53          8.5430    -1.6080     2.5540 c3         1 IMA       0.111100
     34 O1          -4.5800    -2.7520    -0.7090 os         1 IMA      -0.321900
     35 C1          -5.9620    -2.6290    -1.0050 c3         1 IMA       0.188700
     36 C2          -6.6490    -3.8450    -0.4600 ca         1 IMA      -0.099300
     37 C3          -6.8170    -3.9980     0.9140 ca         1 IMA      -0.103500
     38 C4          -7.4360    -5.1280     1.4270 ca         1 IMA      -0.132000
     39 C5          -7.8960    -6.1200     0.5680 ca         1 IMA      -0.114000
     40 C6          -7.7330    -5.9760    -0.8030 ca         1 IMA      -0.132000
     41 C7          -7.1080    -4.8440    -1.3120 ca         1 IMA      -0.103500
     42 H12         -5.1910    -0.4850    -2.0790 ha         1 IMA       0.141000
     43 H13         -3.6230     1.2680    -2.6450 ha         1 IMA       0.140000
     44 H16         -2.1150    -2.7420    -0.0840 ha         1 IMA       0.148000
     45 H17          0.5240    -1.3370    -0.1610 ha         1 IMA       0.146000
     46 H201        -0.2730     2.5160    -3.3000 h1         1 IMA       0.079200
     47 H202        -1.9300     2.6270    -2.7540 h1         1 IMA       0.079200
     48 H22          1.7480     0.7850     0.6650 hn         1 IMA       0.329500
     49 H231         3.4580     2.5000     0.8030 h1         1 IMA       0.081200
     50 H232         3.8140     2.2140    -0.8890 h1         1 IMA       0.081200
     51 H32         -1.7610     2.6620     0.1550 ha         1 IMA       0.164000
     52 H33          0.8500     4.4880    -2.7030 ha         1 IMA       0.143000
     53 H34          1.5050     6.1680    -1.0160 ha         1 IMA       0.138000
     54 H35          0.5640     6.0850     1.2470 ha         1 IMA       0.139000
     55 H371         0.4970     4.8320     3.1120 hn         1 IMA       0.404300
     56 H372        -0.8070     4.6590     4.1650 hn         1 IMA       0.404300
     57 H38         -2.6930     3.7120     3.3260 hn         1 IMA       0.376400
     58 H39          5.7920    -2.3010    -0.4870 ha         1 IMA       0.150500
     59 H41          7.1430     0.3810     2.6070 ha         1 IMA       0.150500
     60 H42          5.3800     1.9260     2.0100 ha         1 IMA       0.168500
     61 H43          4.0380    -0.7400    -1.0580 ha         1 IMA       0.168500
     62 H451         7.9900    -2.6210    -0.6090 hx         1 IMA       0.095922
     63 H452         8.9750    -1.2480    -0.0540 hx         1 IMA       0.095922
     64 H453         9.3660    -2.9040     0.4720 hx         1 IMA       0.095922
     65 H491         7.8830    -4.0530     2.0420 hx         1 IMA       0.095922
     66 H492         6.4200    -3.2270     2.6360 hx         1 IMA       0.095922
     67 H493         6.5230    -3.7660     0.9440 hx         1 IMA       0.095922
     68 H531         9.0240    -0.6660     2.3100 hx         1 IMA       0.095922
     69 H532         7.9440    -1.5110     3.4550 hx         1 IMA       0.095922
     70 H533         9.3020    -2.3690     2.7050 hx         1 IMA       0.095922
     71 HC11        -6.3710    -1.7220    -0.5450 h1         1 IMA       0.040700
     72 HC12        -6.1250    -2.5540    -2.0860 h1         1 IMA       0.040700
     73 HC3         -6.4680    -3.2240     1.5890 ha         1 IMA       0.132000
     74 HC4         -7.5640    -5.2350     2.4960 ha         1 IMA       0.134000
     75 HC5         -8.3810    -7.0010     0.9670 ha         1 IMA       0.133000
     76 HC6         -8.0890    -6.7440    -1.4760 ha         1 IMA       0.134000
     77 HC7         -6.9810    -4.7360    -2.3830 ha         1 IMA       0.132000
@<TRIPOS>BOND
     1     1     2 ar  
     2     1     6 ar  
     3     1    34 1   
     4     2     3 ar  
     5     2    42 1   
     6     3     4 ar  
     7     3    43 1   
     8     4     5 ar  
     9     4     8 1   
    10     5     6 ar  
    11     5     7 1   
    12     6    44 1   
    13     7     9 2   
    14     7    45 1   
    15     8     9 1   
    16     8    10 1   
    17     9    11 1   
    18    10    16 1   
    19    10    46 1   
    20    10    47 1   
    21    11    12 1   
    22    11    15 2   
    23    12    13 1   
    24    12    48 1   
    25    13    14 1   
    26    13    49 1   
    27    13    50 1   
    28    14    28 ar  
    29    14    29 ar  
    30    16    18 ar  
    31    16    19 ar  
    32    17    18 ar  
    33    17    21 ar  
    34    17    22 1   
    35    18    51 1   
    36    19    20 ar  
    37    19    52 1   
    38    20    21 ar  
    39    20    53 1   
    40    21    54 1   
    41    22    23 1   
    42    22    24 2   
    43    23    55 1   
    44    23    56 1   
    45    24    57 1   
    46    25    26 ar  
    47    25    29 ar  
    48    25    58 1   
    49    26    27 ar  
    50    26    30 1   
    51    27    28 ar  
    52    27    59 1   
    53    28    60 1   
    54    29    61 1   
    55    30    31 1   
    56    30    32 1   
    57    30    33 1   
    58    31    62 1   
    59    31    63 1   
    60    31    64 1   
    61    32    65 1   
    62    32    66 1   
    63    32    67 1   
    64    33    68 1   
    65    33    69 1   
    66    33    70 1   
    67    34    35 1   
    68    35    36 1   
    69    35    71 1   
    70    35    72 1   
    71    36    37 ar  
    72    36    41 ar  
    73    37    38 ar  
    74    37    73 1   
    75    38    39 ar  
    76    38    74 1   
    77    39    40 ar  
    78    39    75 1   
    79    40    41 ar  
    80    40    76 1   
    81    41    77 1   
@<TRIPOS>SUBSTRUCTURE
     1 IMA         1 TEMP              0 ****  ****    0 ROOT
