@<TRIPOS>MOLECULE
IMD
   10    10     1     0     0
SMALL
No Charge or Current Charge


@<TRIPOS>ATOM
      1 N1         -13.5340   -13.4760    -0.3060 na         1 IMD      -0.115700
      2 C2         -14.3670   -12.4800    -0.7470 cc         1 IMD      -0.049300
      3 N3         -15.0880   -12.0690     0.3620 na         1 IMD      -0.065000
      4 C4         -14.6820   -12.8250     1.4700 cc         1 IMD      -0.141000
      5 C5         -13.7060   -13.7070     1.0430 cd         1 IMD      -0.141000
      6 HN1        -12.8750   -13.9800    -0.8970 hn         1 IMD       0.418000
      7 H2         -14.4470   -12.0910    -1.7600 h5         1 IMD       0.239000
      8 HN3        -15.7960   -11.3380     0.3680 hn         1 IMD       0.418000
      9 H4         -15.1110   -12.6800     2.4580 h4         1 IMD       0.219000
     10 H5         -13.1420   -14.4570     1.5940 h4         1 IMD       0.219000
@<TRIPOS>BOND
     1     1     2 2   
     2     1     5 1   
     3     1     6 1   
     4     2     3 1   
     5     2     7 1   
     6     3     4 1   
     7     3     8 1   
     8     4     5 2   
     9     4     9 1   
    10     5    10 1   
@<TRIPOS>SUBSTRUCTURE
     1 IMD         1 TEMP              0 ****  ****    0 ROOT
