@<TRIPOS>MOLECULE
IMD
   10    10     1     0     0
SMALL
abcg2


@<TRIPOS>ATOM
      1 N1         -13.5520   -13.4610    -0.3020 na         1 IMD      -0.115700
      2 C2         -14.3650   -12.4980    -0.6990 cc         1 IMD      -0.049300
      3 N3         -15.0540   -12.1020     0.3560 na         1 IMD      -0.065000
      4 C4         -14.6770   -12.8250     1.4560 cc         1 IMD      -0.141000
      5 C5         -13.7220   -13.6900     1.0370 cd         1 IMD      -0.141000
      6 HN1        -12.9020   -13.9460    -0.9060 hn         1 IMD       0.418000
      7 H2         -14.4500   -12.1070    -1.6990 h5         1 IMD       0.239000
      8 HN3        -15.7550   -11.3730     0.3430 hn         1 IMD       0.418000
      9 H4         -15.1110   -12.6690     2.4270 h4         1 IMD       0.219000
     10 H5         -13.1600   -14.4340     1.5730 h4         1 IMD       0.219000
@<TRIPOS>BOND
     1     1     2 2   
     2     1     5 1   
     3     1     6 1   
     4     2     3 1   
     5     2     7 1   
     6     3     4 1   
     7     3     8 1   
     8     4     5 2   
     9     4     9 1   
    10     5    10 1   
@<TRIPOS>SUBSTRUCTURE
     1 IMD         1 TEMP              0 ****  ****    0 ROOT
