@<TRIPOS>MOLECULE
IMG
   35    37     1     0     0
SMALL
No Charge or Current Charge


@<TRIPOS>ATOM
      1 O5          -1.6290    -0.9090     5.0750 oh         1 IMG      -0.663000
      2 C5          -1.0970     0.1840     4.3010 c3         1 IMG       0.170600
      3 C4           0.0130    -0.2970     3.3160 c5         1 IMG       0.172500
      4 N4          -0.4850    -1.2380     2.2600 n7         1 IMG      -0.887400
      5 C3           0.7010     0.8660     2.5280 c5         1 IMG       0.117300
      6 O3           1.6010     1.6550     3.3260 oh         1 IMG      -0.659000
      7 C2           1.4490     0.0450     1.4370 c5         1 IMG       0.143300
      8 O2           2.6050    -0.6210     1.9800 oh         1 IMG      -0.652000
      9 C1           0.3000    -0.9450     1.0190 c5         1 IMG       0.244800
     10 C9          -0.5980    -0.3050    -0.0250 cc         1 IMG      -0.160300
     11 C8          -1.8520     0.2400     0.0990 cd         1 IMG      -0.112000
     12 N7          -2.2050     0.6830    -1.1880 na         1 IMG      -0.078000
     13 C7          -1.1560     0.3960    -2.0820 cd         1 IMG      -0.327600
     14 C6          -1.0240     0.6440    -3.5190 c          1 IMG       0.614600
     15 O6          -1.8650     1.1790    -4.2220 o          1 IMG      -0.563000
     16 N1           0.1680     0.1980    -3.9880 ns         1 IMG      -0.445400
     17 C11          1.0920    -0.3980    -3.2040 cd         1 IMG       0.681800
     18 N3           1.0090    -0.6390    -1.9160 nc         1 IMG      -0.649100
     19 C10         -0.1760    -0.2120    -1.3620 cc         1 IMG       0.186400
     20 HO'5        -2.3770    -0.5480     5.6010 ho         1 IMG       0.445000
     21 H5'1        -0.6670     0.9410     4.9710 h1         1 IMG       0.027200
     22 H5'2        -1.8960     0.6690     3.7250 h1         1 IMG       0.027200
     23 H4           0.7760    -0.8070     3.9220 h1         1 IMG       0.057700
     24 HN'4        -0.2960    -2.1980     2.5720 hn         1 IMG       0.442000
     25 H3          -0.0610     1.5120     2.0670 h1         1 IMG       0.049700
     26 HO'3         1.7490     2.5020     2.8480 ho         1 IMG       0.451000
     27 H2           1.7480     0.6840     0.5940 h1         1 IMG       0.056700
     28 HO'2         2.8920    -0.0500     2.7280 ho         1 IMG       0.454000
     29 H1           0.7230    -1.8700     0.5990 h1         1 IMG       0.070700
     30 H8          -2.4970     0.3420     0.9650 h4         1 IMG       0.160000
     31 H7          -3.0830     1.1370    -1.4320 hn         1 IMG       0.364000
     32 H6           0.3340     0.3120    -4.9730 hn         1 IMG       0.322500
     33 H21          2.9540    -1.0460    -3.1480 hn         1 IMG       0.482500
     34 H22          2.5160    -0.2790    -4.6180 hn         1 IMG       0.482500
     35 N2           2.2180    -0.7830    -3.7920 nv         1 IMG      -1.026200
@<TRIPOS>BOND
     1     1     2 1   
     2     1    20 1   
     3     2     3 1   
     4     2    21 1   
     5     2    22 1   
     6     3     4 1   
     7     3     5 1   
     8     3    23 1   
     9     4     9 1   
    10     4    24 1   
    11     5     6 1   
    12     5     7 1   
    13     5    25 1   
    14     6    26 1   
    15     7     8 1   
    16     7     9 1   
    17     7    27 1   
    18     8    28 1   
    19     9    10 1   
    20     9    29 1   
    21    10    11 2   
    22    10    19 1   
    23    11    12 1   
    24    11    30 1   
    25    12    13 1   
    26    12    31 1   
    27    13    14 1   
    28    13    19 2   
    29    14    15 2   
    30    14    16 1   
    31    16    17 1   
    32    16    32 1   
    33    17    18 2   
    34    17    35 1   
    35    18    19 1   
    36    33    35 1   
    37    34    35 1   
@<TRIPOS>SUBSTRUCTURE
     1 IMG         1 TEMP              0 ****  ****    0 ROOT
