@<TRIPOS>MOLECULE
IMG
   35    37     1     0     0
SMALL
bcc


@<TRIPOS>ATOM
      1 O5          -1.5290    -1.4120     4.8500 oh         1 IMG      -0.600800
      2 C5          -0.8870    -0.1790     4.6090 c3         1 IMG       0.147400
      3 C4           0.0040    -0.3250     3.3990 c5         1 IMG       0.172500
      4 N4          -0.7490    -0.5580     2.1850 n7         1 IMG      -0.832200
      5 C3           0.7330     0.9600     3.0300 c5         1 IMG       0.094100
      6 O3           1.8390     1.1850     3.8700 oh         1 IMG      -0.596800
      7 C2           1.1360     0.7370     1.5510 c5         1 IMG       0.120100
      8 O2           2.4690     0.3050     1.4510 oh         1 IMG      -0.589800
      9 C1           0.1640    -0.3690     1.0630 c5         1 IMG       0.244800
     10 C9          -0.5840    -0.0290    -0.1820 cc         1 IMG      -0.160300
     11 C8          -1.8450     0.5240    -0.2630 cd         1 IMG      -0.079300
     12 N7          -2.1800     0.7230    -1.5580 na         1 IMG      -0.129100
     13 C7          -1.1470     0.3060    -2.3460 cd         1 IMG      -0.276900
     14 C6          -1.0200     0.3020    -3.7580 c          1 IMG       0.757100
     15 O6          -1.8270     0.6870    -4.5940 o          1 IMG      -0.638500
     16 N1           0.2120    -0.2250    -4.1310 ns         1 IMG      -0.512400
     17 C11          1.1790    -0.6780    -3.2690 cd         1 IMG       0.681800
     18 N3           1.0500    -0.6640    -1.9780 nc         1 IMG      -0.649100
     19 C10         -0.1340    -0.1710    -1.5180 cc         1 IMG       0.186400
     20 HO'5        -2.1010    -1.3110     5.6170 ho         1 IMG       0.406000
     21 H5'1        -0.2770     0.1320     5.4660 h1         1 IMG       0.027200
     22 H5'2        -1.6120     0.6230     4.4140 h1         1 IMG       0.027200
     23 H4           0.7560    -1.1090     3.5960 h1         1 IMG       0.057700
     24 HN'4        -1.1850    -1.4700     2.1620 hn         1 IMG       0.386800
     25 H3           0.0230     1.7930     3.0840 h1         1 IMG       0.049700
     26 HO'3         2.0040     2.1320     3.9200 ho         1 IMG       0.412000
     27 H2           0.9910     1.6560     0.9700 h1         1 IMG       0.056700
     28 HO'2         2.9090     0.5760     2.2680 ho         1 IMG       0.415000
     29 H1           0.7830    -1.2590     0.8770 h1         1 IMG       0.070700
     30 H8          -2.5270     0.7790     0.5310 h4         1 IMG       0.178000
     31 H7          -3.0500     1.1090    -1.8830 hn         1 IMG       0.313700
     32 H6           0.3830    -0.2870    -5.1260 hn         1 IMG       0.322500
     33 H21          3.0670    -1.3470    -3.2270 hn         1 IMG       0.427300
     34 H22          2.5500    -0.8880    -4.7680 hn         1 IMG       0.427300
     35 N2           2.2880    -1.2040    -3.8480 nv         1 IMG      -0.915800
@<TRIPOS>BOND
     1     1     2 1   
     2     1    20 1   
     3     2     3 1   
     4     2    21 1   
     5     2    22 1   
     6     3     4 1   
     7     3     5 1   
     8     3    23 1   
     9     4     9 1   
    10     4    24 1   
    11     5     6 1   
    12     5     7 1   
    13     5    25 1   
    14     6    26 1   
    15     7     8 1   
    16     7     9 1   
    17     7    27 1   
    18     8    28 1   
    19     9    10 1   
    20     9    29 1   
    21    10    11 2   
    22    10    19 1   
    23    11    12 1   
    24    11    30 1   
    25    12    13 1   
    26    12    31 1   
    27    13    14 1   
    28    13    19 2   
    29    14    15 2   
    30    14    16 1   
    31    16    17 1   
    32    16    32 1   
    33    17    18 2   
    34    17    35 1   
    35    18    19 1   
    36    33    35 1   
    37    34    35 1   
@<TRIPOS>SUBSTRUCTURE
     1 IMG         1 TEMP              0 ****  ****    0 ROOT
