@<TRIPOS>MOLECULE
IMH
   33    35     1     0     0
SMALL
No Charge or Current Charge


@<TRIPOS>ATOM
      1 O5           1.9630     0.8770     4.7230 oh         1 IMH      -0.656000
      2 C5           1.1950    -0.2300     4.2140 c3         1 IMH       0.174600
      3 C4           0.1860     0.2340     3.1190 c5         1 IMH       0.179500
      4 N4           0.8430     0.7840     1.9010 n7         1 IMH      -0.888400
      5 C3          -0.6840    -0.9120     2.5220 c5         1 IMH       0.110300
      6 O3          -1.6340    -1.4750     3.4450 oh         1 IMH      -0.657000
      7 C2          -1.3830    -0.1410     1.3600 c5         1 IMH       0.124300
      8 O2          -2.5040     0.6110     1.8570 oh         1 IMH      -0.655000
      9 C1          -0.2100     0.7840     0.8440 c5         1 IMH       0.256700
     10 C9           0.3490     0.2690    -0.4660 cc         1 IMH      -0.263000
     11 C8           1.6010    -0.3270    -0.6290 cd         1 IMH      -0.108100
     12 N7           1.7790    -0.7050    -1.9840 na         1 IMH      -0.209700
     13 C7           0.6050    -0.3270    -2.6340 ca         1 IMH      -0.244200
     14 C6           0.2080    -0.4500    -3.9780 ca         1 IMH       0.367300
     15 O6           1.0130    -1.0170    -4.9170 oh         1 IMH      -0.626300
     16 N1          -1.0030     0.0010    -4.3720 nb         1 IMH      -0.213000
     17 C11         -1.7860     0.5630    -3.4140 ca         1 IMH       0.133900
     18 N3          -1.4800     0.7190    -2.1040 nb         1 IMH      -0.157000
     19 C10         -0.2660     0.2560    -1.7580 ca         1 IMH       0.124800
     20 HO'5         2.6240     0.5020     5.3460 ho         1 IMH       0.441000
     21 H5'1         1.8610    -0.9900     3.7840 h1         1 IMH       0.021200
     22 H5'2         0.6350    -0.7030     5.0310 h1         1 IMH       0.021200
     23 H4          -0.4650     0.9950     3.5750 h1         1 IMH       0.066700
     24 HN'4         1.1790     1.7370     2.0820 hn         1 IMH       0.442000
     25 H3          -0.0350    -1.7030     2.1180 h1         1 IMH       0.047700
     26 HO'3        -1.8440    -2.3830     3.1300 ho         1 IMH       0.450000
     27 H2          -1.7150    -0.8350     0.5750 h1         1 IMH       0.066700
     28 HO'2        -2.7630     0.1400     2.6830 ho         1 IMH       0.456000
     29 H1          -0.5950     1.8030     0.6870 h1         1 IMH       0.087700
     30 H8           2.3690    -0.5100     0.1200 h4         1 IMH       0.233000
     31 HN7          2.6000    -1.1580    -2.3760 hn         1 IMH       0.351000
     32 HO6          1.8390    -1.2810    -4.4660 ho         1 IMH       0.469000
     33 H6          -2.7620     0.9260    -3.7330 h5         1 IMH       0.054100
@<TRIPOS>BOND
     1     1     2 1   
     2     1    20 1   
     3     2     3 1   
     4     2    21 1   
     5     2    22 1   
     6     3     4 1   
     7     3     5 1   
     8     3    23 1   
     9     4     9 1   
    10     4    24 1   
    11     5     6 1   
    12     5     7 1   
    13     5    25 1   
    14     6    26 1   
    15     7     8 1   
    16     7     9 1   
    17     7    27 1   
    18     8    28 1   
    19     9    10 1   
    20     9    29 1   
    21    10    11 2   
    22    10    19 1   
    23    11    12 1   
    24    11    30 1   
    25    12    13 1   
    26    12    31 1   
    27    13    14 ar  
    28    13    19 ar  
    29    14    15 1   
    30    14    16 ar  
    31    15    32 1   
    32    16    17 ar  
    33    17    18 ar  
    34    17    33 1   
    35    18    19 ar  
@<TRIPOS>SUBSTRUCTURE
     1 IMH         1 TEMP              0 ****  ****    0 ROOT
