@<TRIPOS>MOLECULE
IMH
   33    35     1     0     0
SMALL
abcg2


@<TRIPOS>ATOM
      1 O5           2.1700     0.4870     4.3450 oh         1 IMH      -0.656000
      2 C5           1.3730    -0.4790     3.6970 c3         1 IMH       0.174600
      3 C4           0.1760     0.2090     3.0790 c5         1 IMH       0.179500
      4 N4           0.5550     1.1200     2.0040 n7         1 IMH      -0.888400
      5 C3          -0.7780    -0.7750     2.4060 c5         1 IMH       0.110300
      6 O3          -1.6130    -1.3860     3.3580 oh         1 IMH      -0.657000
      7 C2          -1.5200     0.1110     1.4030 c5         1 IMH       0.124300
      8 O2          -2.4650     0.9190     2.0620 oh         1 IMH      -0.655000
      9 C1          -0.3820     0.9950     0.8850 c5         1 IMH       0.256700
     10 C9           0.2840     0.3840    -0.3100 cc         1 IMH      -0.263000
     11 C8           1.5530    -0.1300    -0.3890 cd         1 IMH      -0.108100
     12 N7           1.8050    -0.5960    -1.6430 na         1 IMH      -0.209700
     13 C7           0.7000    -0.3890    -2.4150 ca         1 IMH      -0.244200
     14 C6           0.3690    -0.6410    -3.7470 ca         1 IMH       0.367300
     15 O6           1.1740    -1.2140    -4.6380 oh         1 IMH      -0.626300
     16 N1          -0.8200    -0.2980    -4.1900 nb         1 IMH      -0.213000
     17 C11         -1.6790     0.2840    -3.3430 ca         1 IMH       0.133900
     18 N3          -1.4860     0.5700    -2.0780 nb         1 IMH      -0.157000
     19 C10         -0.2740     0.2270    -1.6090 ca         1 IMH       0.124800
     20 HO'5         2.9180     0.0380     4.7480 ho         1 IMH       0.441000
     21 H5'1         1.9290    -0.9960     2.9030 h1         1 IMH       0.021200
     22 H5'2         1.0210    -1.2470     4.4000 h1         1 IMH       0.021200
     23 H4          -0.3740     0.7290     3.8770 h1         1 IMH       0.066700
     24 HN'4         0.6160     2.0720     2.3290 hn         1 IMH       0.442000
     25 H3          -0.2000    -1.5260     1.8500 h1         1 IMH       0.047700
     26 HO'3        -2.0130    -2.1650     2.9600 ho         1 IMH       0.450000
     27 H2          -1.9900    -0.4730     0.6010 h1         1 IMH       0.066700
     28 HO'2        -2.9110     0.3670     2.7160 ho         1 IMH       0.456000
     29 H1          -0.7850     1.9710     0.5970 h1         1 IMH       0.087700
     30 H8           2.3060    -0.1900     0.3790 h4         1 IMH       0.233000
     31 HN7          2.6740    -1.0180    -1.9260 hn         1 IMH       0.351000
     32 HO6          2.0290    -1.4510    -4.2630 ho         1 IMH       0.469000
     33 H6          -2.6440     0.5450    -3.7650 h5         1 IMH       0.054100
@<TRIPOS>BOND
     1     1     2 1   
     2     1    20 1   
     3     2     3 1   
     4     2    21 1   
     5     2    22 1   
     6     3     4 1   
     7     3     5 1   
     8     3    23 1   
     9     4     9 1   
    10     4    24 1   
    11     5     6 1   
    12     5     7 1   
    13     5    25 1   
    14     6    26 1   
    15     7     8 1   
    16     7     9 1   
    17     7    27 1   
    18     8    28 1   
    19     9    10 1   
    20     9    29 1   
    21    10    11 2   
    22    10    19 1   
    23    11    12 1   
    24    11    30 1   
    25    12    13 1   
    26    12    31 1   
    27    13    14 ar  
    28    13    19 ar  
    29    14    15 1   
    30    14    16 ar  
    31    15    32 1   
    32    16    17 ar  
    33    17    18 ar  
    34    17    33 1   
    35    18    19 ar  
@<TRIPOS>SUBSTRUCTURE
     1 IMH         1 TEMP              0 ****  ****    0 ROOT
