@<TRIPOS>MOLECULE
IMI
   32    33     1     0     0
SMALL
No Charge or Current Charge


@<TRIPOS>ATOM
      1 C11          0.0010     0.1700     5.4100 c          1 IMI       0.717000
      2 O11          0.6050    -0.8130     5.8110 o          1 IMI      -0.742500
      3 O12          0.0610     1.2650     5.9470 o          1 IMI      -0.742500
      4 C10         -0.8340     0.0360     4.1230 c3         1 IMI      -0.204400
      5 C9           0.0400     0.3470     2.8840 c3         1 IMI      -0.053400
      6 C8          -0.7340     0.2350     1.5500 c3         1 IMI      -0.081400
      7 C7           0.1410     0.5490     0.3130 c3         1 IMI      -0.062400
      8 C2          -0.6170     0.4910    -1.0400 c5         1 IMI       0.085300
      9 S1          -1.1640    -1.2330    -1.4550 ss         1 IMI      -0.391000
     10 C6          -1.5900    -0.6490    -3.1670 c5         1 IMI       0.029600
     11 C5          -0.6180     0.5280    -3.5600 c5         1 IMI       0.226500
     12 N1           0.4390    -0.1030    -4.3900 nu         1 IMI      -0.983400
     13 C3           1.4720    -0.3860    -3.5920 c2         1 IMI       0.833100
     14 N3           2.5750    -0.6300    -4.1130 n2         1 IMI      -0.901100
     15 N2           1.4330     0.1900    -2.3940 nu         1 IMI      -0.884400
     16 C4           0.1840     0.9930    -2.2970 c5         1 IMI       0.207500
     17 H101        -1.1790    -0.9980     3.9960 hc         1 IMI       0.015700
     18 H102        -1.6440     0.7760     4.1130 hc         1 IMI       0.015700
     19 H91          0.4510     1.3600     2.9780 hc         1 IMI       0.038700
     20 H92          0.8940    -0.3420     2.8630 hc         1 IMI       0.038700
     21 H81         -1.1430    -0.7780     1.4600 hc         1 IMI       0.031700
     22 H82         -1.5870     0.9240     1.5700 hc         1 IMI       0.031700
     23 H71          0.5670     1.5520     0.4380 hc         1 IMI       0.051700
     24 H72          0.9890    -0.1470     0.2970 hc         1 IMI       0.051700
     25 H2          -1.5200     1.1090    -0.9370 h1         1 IMI       0.063700
     26 H61         -1.5580    -1.4850    -3.8790 h1         1 IMI       0.067200
     27 H62         -2.6230    -0.2790    -3.1480 h1         1 IMI       0.067200
     28 H5          -1.1450     1.3480    -4.0680 h1         1 IMI       0.047700
     29 HN1          0.7260     0.3640    -5.2430 hn         1 IMI       0.497000
     30 HN3          2.3840    -0.8860    -5.0860 hn         1 IMI       0.371400
     31 HN2          2.3290     0.5990    -2.1640 hn         1 IMI       0.504000
     32 H4           0.3720     2.0760    -2.2890 h1         1 IMI       0.051700
@<TRIPOS>BOND
     1     1     2 1   
     2     1     3 1   
     3     1     4 1   
     4     4     5 1   
     5     4    17 1   
     6     4    18 1   
     7     5     6 1   
     8     5    19 1   
     9     5    20 1   
    10     6     7 1   
    11     6    21 1   
    12     6    22 1   
    13     7     8 1   
    14     7    23 1   
    15     7    24 1   
    16     8     9 1   
    17     8    16 1   
    18     8    25 1   
    19     9    10 1   
    20    10    11 1   
    21    10    26 1   
    22    10    27 1   
    23    11    12 1   
    24    11    16 1   
    25    11    28 1   
    26    12    13 1   
    27    12    29 1   
    28    13    14 2   
    29    13    15 1   
    30    14    30 1   
    31    15    16 1   
    32    15    31 1   
    33    16    32 1   
@<TRIPOS>SUBSTRUCTURE
     1 IMI         1 TEMP              0 ****  ****    0 ROOT
