@<TRIPOS>MOLECULE
IMI
   32    33     1     0     0
SMALL
bcc


@<TRIPOS>ATOM
      1 C11          0.0080     0.1050     5.3560 c          1 IMI       0.927600
      2 O11          1.2290     0.3570     5.3440 o          1 IMI      -0.847800
      3 O12         -0.6870    -0.1210     6.3700 o          1 IMI      -0.847800
      4 C10         -0.7350     0.0630     4.0090 c3         1 IMI      -0.204400
      5 C9           0.1050     0.3350     2.7730 c3         1 IMI      -0.053400
      6 C8          -0.7040     0.2660     1.4830 c3         1 IMI      -0.081400
      7 C7           0.1420     0.5520     0.2490 c3         1 IMI      -0.062400
      8 C2          -0.6490     0.5900    -1.0450 c5         1 IMI       0.037400
      9 S1          -1.3810    -1.0220    -1.4820 ss         1 IMI      -0.295200
     10 C6          -1.7710    -0.3680    -3.1250 c5         1 IMI      -0.018300
     11 C5          -0.5630     0.4750    -3.5510 c5         1 IMI       0.226500
     12 N1           0.4630    -0.2900    -4.2080 nu         1 IMI      -0.928200
     13 C3           1.6530    -0.3050    -3.5510 c2         1 IMI       0.833100
     14 N3           2.7810    -0.7980    -3.9030 n2         1 IMI      -0.901100
     15 N2           1.4500     0.3200    -2.3470 nu         1 IMI      -0.829200
     16 C4           0.1710     0.9870    -2.2790 c5         1 IMI       0.207500
     17 H101        -1.2170    -0.9180     3.9190 hc         1 IMI       0.015700
     18 H102        -1.5640     0.7790     4.0550 hc         1 IMI       0.015700
     19 H91          0.5710     1.3220     2.8510 hc         1 IMI       0.038700
     20 H92          0.9300    -0.3820     2.7200 hc         1 IMI       0.038700
     21 H81         -1.1650    -0.7250     1.3970 hc         1 IMI       0.031700
     22 H82         -1.5320     0.9810     1.5280 hc         1 IMI       0.031700
     23 H71          0.6290     1.5270     0.3700 hc         1 IMI       0.051700
     24 H72          0.9450    -0.1860     0.1660 hc         1 IMI       0.051700
     25 H2          -1.4690     1.3110    -0.9450 h1         1 IMI       0.063700
     26 H61         -1.9670    -1.1820    -3.8210 h1         1 IMI       0.067200
     27 H62         -2.6650     0.2560    -3.0680 h1         1 IMI       0.067200
     28 H5          -0.9050     1.3010    -4.1790 h1         1 IMI       0.047700
     29 HN1          0.3570    -0.6440    -5.1430 hn         1 IMI       0.441800
     30 HN3          2.7120    -1.2190    -4.8220 hn         1 IMI       0.371400
     31 HN2          2.2480     0.7390    -1.9010 hn         1 IMI       0.448800
     32 H4           0.2890     2.0750    -2.2900 h1         1 IMI       0.051700
@<TRIPOS>BOND
     1     1     2 1   
     2     1     3 1   
     3     1     4 1   
     4     4     5 1   
     5     4    17 1   
     6     4    18 1   
     7     5     6 1   
     8     5    19 1   
     9     5    20 1   
    10     6     7 1   
    11     6    21 1   
    12     6    22 1   
    13     7     8 1   
    14     7    23 1   
    15     7    24 1   
    16     8     9 1   
    17     8    16 1   
    18     8    25 1   
    19     9    10 1   
    20    10    11 1   
    21    10    26 1   
    22    10    27 1   
    23    11    12 1   
    24    11    16 1   
    25    11    28 1   
    26    12    13 1   
    27    12    29 1   
    28    13    14 2   
    29    13    15 1   
    30    14    30 1   
    31    15    16 1   
    32    15    31 1   
    33    16    32 1   
@<TRIPOS>SUBSTRUCTURE
     1 IMI         1 TEMP              0 ****  ****    0 ROOT
