@<TRIPOS>MOLECULE
IMJ
   53    56     1     0     0
SMALL
abcg2


@<TRIPOS>ATOM
      1 C20         18.8490   -55.1080    94.4240 ca         1 IMJ      -0.068000
      2 C21         18.4940   -55.4890    93.1370 ca         1 IMJ      -0.135000
      3 C22         19.4450   -56.0080    92.2440 ca         1 IMJ      -0.093000
      4 C23         20.7730   -56.1620    92.6210 ca         1 IMJ      -0.125000
      5 C24         21.1260   -55.7790    93.9140 ca         1 IMJ      -0.043200
      6 C25         20.1820   -55.2480    94.8320 ca         1 IMJ      -0.079800
      7 N26         22.3470   -55.8320    94.5470 na         1 IMJ      -0.096700
      8 C27         22.2090   -55.3530    95.8400 cc         1 IMJ      -0.025300
      9 C28         20.8960   -54.9820    96.0510 cd         1 IMJ      -0.183400
     10 C29         23.5610   -56.3160    93.9200 c3         1 IMJ       0.064900
     11 C30         23.3710   -55.2970    96.7680 c3         1 IMJ      -0.042900
     12 C31         20.3220   -54.3690    97.2900 c3         1 IMJ       0.187200
     13 N32         20.2330   -52.8970    97.2190 n          1 IMJ      -0.403800
     14 C33         21.5160   -52.2070    97.1990 c3         1 IMJ       0.083300
     15 C34         19.1220   -52.1880    96.8850 c          1 IMJ       0.602300
     16 O35         19.2010   -50.9930    96.5590 o          1 IMJ      -0.616100
     17 C36         17.8070   -52.8680    96.9570 ce         1 IMJ      -0.282200
     18 C37         16.7250   -52.3130    96.3970 cf         1 IMJ      -0.081200
     19 C38         15.3800   -52.8650    96.3710 ca         1 IMJ      -0.152800
     20 C39         15.0230   -54.1050    96.9310 ca         1 IMJ      -0.026000
     21 C40         13.7240   -54.5560    96.8560 ca         1 IMJ      -0.173300
     22 C41         13.2520   -55.8890    97.3610 c6         1 IMJ      -0.016100
     23 C42         11.8080   -55.8030    97.8560 c6         1 IMJ      -0.159400
     24 C43         10.8880   -55.1210    96.8700 c          1 IMJ       0.572000
     25 N44         11.4620   -54.1220    96.1290 ns         1 IMJ      -0.322900
     26 C45         12.7910   -53.7190    96.2190 ca         1 IMJ       0.494900
     27 N46         13.0960   -52.5500    95.6650 nb         1 IMJ      -0.712000
     28 C47         14.3640   -52.1450    95.7410 ca         1 IMJ       0.393900
     29 O48          9.7010   -55.3890    96.7530 o          1 IMJ      -0.529000
     30 H20         18.1030   -54.7110    95.0970 ha         1 IMJ       0.113000
     31 H21         17.4650   -55.3840    92.8150 ha         1 IMJ       0.112000
     32 H22         19.1390   -56.2960    91.2460 ha         1 IMJ       0.111000
     33 H23         21.5050   -56.5670    91.9340 ha         1 IMJ       0.113000
     34 H29         24.3910   -56.2340    94.6150 h1         1 IMJ       0.049700
     35 H29A        23.4520   -57.3610    93.6260 h1         1 IMJ       0.049700
     36 H29B        23.7910   -55.7240    93.0310 h1         1 IMJ       0.049700
     37 H30         24.1230   -54.5800    96.4250 hc         1 IMJ       0.051367
     38 H30A        23.0500   -54.9930    97.7610 hc         1 IMJ       0.051367
     39 H30B        23.8600   -56.2700    96.8550 hc         1 IMJ       0.051367
     40 H31         19.3370   -54.7790    97.4850 h1         1 IMJ       0.051700
     41 H31A        20.9400   -54.6100    98.1560 h1         1 IMJ       0.051700
     42 H33         21.3740   -51.1680    97.4780 h1         1 IMJ       0.042700
     43 H33A        22.1830   -52.6900    97.9100 h1         1 IMJ       0.042700
     44 H33B        21.9780   -52.2450    96.2080 h1         1 IMJ       0.042700
     45 H36         17.7310   -53.8150    97.4680 ha         1 IMJ       0.178000
     46 H37         16.8500   -51.3600    95.8930 ha         1 IMJ       0.201000
     47 H39         15.7670   -54.7240    97.4150 ha         1 IMJ       0.121000
     48 H41         13.3110   -56.6160    96.5440 hc         1 IMJ       0.060700
     49 H41A        13.9050   -56.2490    98.1560 hc         1 IMJ       0.060700
     50 H42         11.3970   -56.7870    98.0760 hc         1 IMJ       0.079700
     51 H42A        11.7620   -55.2130    98.7780 hc         1 IMJ       0.079700
     52 HN44        10.8500   -53.5620    95.5490 hn         1 IMJ       0.175000
     53 H47         14.5910   -51.1890    95.2790 h4         1 IMJ       0.030100
@<TRIPOS>BOND
     1     1     2 ar  
     2     1     6 ar  
     3     1    30 1   
     4     2     3 ar  
     5     2    31 1   
     6     3     4 ar  
     7     3    32 1   
     8     4     5 ar  
     9     4    33 1   
    10     5     6 ar  
    11     5     7 1   
    12     6     9 1   
    13     7     8 1   
    14     7    10 1   
    15     8     9 2   
    16     8    11 1   
    17     9    12 1   
    18    10    34 1   
    19    10    35 1   
    20    10    36 1   
    21    11    37 1   
    22    11    38 1   
    23    11    39 1   
    24    12    13 1   
    25    12    40 1   
    26    12    41 1   
    27    13    14 1   
    28    13    15 1   
    29    14    42 1   
    30    14    43 1   
    31    14    44 1   
    32    15    16 2   
    33    15    17 1   
    34    17    18 2   
    35    17    45 1   
    36    18    19 1   
    37    18    46 1   
    38    19    20 ar  
    39    19    28 ar  
    40    20    21 ar  
    41    20    47 1   
    42    21    22 1   
    43    21    26 ar  
    44    22    23 1   
    45    22    48 1   
    46    22    49 1   
    47    23    24 1   
    48    23    50 1   
    49    23    51 1   
    50    24    25 1   
    51    24    29 2   
    52    25    26 1   
    53    25    52 1   
    54    26    27 ar  
    55    27    28 ar  
    56    28    53 1   
@<TRIPOS>SUBSTRUCTURE
     1 IMJ         1 TEMP              0 ****  ****    0 ROOT
