@<TRIPOS>MOLECULE
IMJ
   53    56     1     0     0
SMALL
No Charge or Current Charge


@<TRIPOS>ATOM
      1 C20         19.2410   -54.9290    94.0290 ca         1 IMJ      -0.068000
      2 C21         19.0100   -55.3120    92.6910 ca         1 IMJ      -0.135000
      3 C22         20.0160   -55.9820    91.9540 ca         1 IMJ      -0.093000
      4 C23         21.2630   -56.2740    92.5490 ca         1 IMJ      -0.125000
      5 C24         21.4630   -55.8800    93.8820 ca         1 IMJ      -0.043200
      6 C25         20.4890   -55.2340    94.5890 ca         1 IMJ      -0.079800
      7 N26         22.5730   -56.0400    94.6970 na         1 IMJ      -0.096700
      8 C27         22.3350   -55.4850    95.9720 cc         1 IMJ      -0.025300
      9 C28         21.0350   -54.9820    95.9070 cd         1 IMJ      -0.183400
     10 C29         23.7930   -56.7110    94.2150 c3         1 IMJ       0.064900
     11 C30         23.3320   -55.4800    97.1040 c3         1 IMJ      -0.042900
     12 C31         20.2900   -54.2760    97.0160 c3         1 IMJ       0.187200
     13 N32         20.1860   -52.8100    96.8020 n          1 IMJ      -0.403800
     14 C33         21.4720   -52.0780    96.7220 c3         1 IMJ       0.083300
     15 C34         18.9730   -52.1010    96.5930 c          1 IMJ       0.602300
     16 O35         19.0140   -50.9100    96.3100 o          1 IMJ      -0.616100
     17 C36         17.6370   -52.7750    96.7190 ce         1 IMJ      -0.282200
     18 C37         16.4430   -52.1550    96.4760 cf         1 IMJ      -0.081200
     19 C38         15.0700   -52.7010    96.5640 ca         1 IMJ      -0.152800
     20 C39         14.8190   -54.0480    96.9060 ca         1 IMJ      -0.026000
     21 C40         13.4850   -54.4830    96.9660 ca         1 IMJ      -0.173300
     22 C41         13.1190   -55.9320    97.2940 c6         1 IMJ      -0.016100
     23 C42         11.6840   -56.0460    97.8780 c6         1 IMJ      -0.159400
     24 C43         10.6530   -55.1300    97.1940 c          1 IMJ       0.572000
     25 N44         11.1330   -53.9380    96.7200 ns         1 IMJ      -0.322900
     26 C45         12.4690   -53.5610    96.6760 ca         1 IMJ       0.494900
     27 N46         12.6760   -52.2780    96.3430 nb         1 IMJ      -0.712000
     28 C47         13.9630   -51.8630    96.2910 ca         1 IMJ       0.393900
     29 O48          9.4820   -55.4540    97.0590 o          1 IMJ      -0.529000
     30 H20         18.4730   -54.4160    94.6020 ha         1 IMJ       0.113000
     31 H21         18.0530   -55.0920    92.2240 ha         1 IMJ       0.112000
     32 H22         19.8280   -56.2730    90.9220 ha         1 IMJ       0.111000
     33 H23         22.0380   -56.7870    91.9860 ha         1 IMJ       0.113000
     34 H29         24.5300   -56.7900    95.0230 h1         1 IMJ       0.049700
     35 H29A        23.5430   -57.7190    93.8630 h1         1 IMJ       0.049700
     36 H29B        24.2270   -56.1340    93.3890 h1         1 IMJ       0.049700
     37 H30         24.2760   -55.0210    96.7870 hc         1 IMJ       0.051367
     38 H30A        22.9690   -54.9190    97.9710 hc         1 IMJ       0.051367
     39 H30B        23.5470   -56.5030    97.4350 hc         1 IMJ       0.051367
     40 H31         19.3190   -54.7620    97.1190 h1         1 IMJ       0.051700
     41 H31A        20.8070   -54.4430    97.9690 h1         1 IMJ       0.051700
     42 H33         21.4240   -51.1660    97.3320 h1         1 IMJ       0.042700
     43 H33A        22.2960   -52.6990    97.0930 h1         1 IMJ       0.042700
     44 H33B        21.6750   -51.8040    95.6780 h1         1 IMJ       0.042700
     45 H36         17.6110   -53.8070    97.0310 ha         1 IMJ       0.178000
     46 H37         16.4810   -51.1050    96.1680 ha         1 IMJ       0.201000
     47 H39         15.6260   -54.7450    97.1150 ha         1 IMJ       0.121000
     48 H41         13.1850   -56.5310    96.3750 hc         1 IMJ       0.060700
     49 H41A        13.8440   -56.3650    97.9980 hc         1 IMJ       0.060700
     50 H42         11.3120   -57.0780    97.9280 hc         1 IMJ       0.079700
     51 H42A        11.7520   -55.6740    98.9090 hc         1 IMJ       0.079700
     52 HN44        10.4730   -53.2980    96.3030 hn         1 IMJ       0.175000
     53 H47         14.1140   -50.8180    96.0200 h4         1 IMJ       0.030100
@<TRIPOS>BOND
     1     1     2 ar  
     2     1     6 ar  
     3     1    30 1   
     4     2     3 ar  
     5     2    31 1   
     6     3     4 ar  
     7     3    32 1   
     8     4     5 ar  
     9     4    33 1   
    10     5     6 ar  
    11     5     7 1   
    12     6     9 1   
    13     7     8 1   
    14     7    10 1   
    15     8     9 2   
    16     8    11 1   
    17     9    12 1   
    18    10    34 1   
    19    10    35 1   
    20    10    36 1   
    21    11    37 1   
    22    11    38 1   
    23    11    39 1   
    24    12    13 1   
    25    12    40 1   
    26    12    41 1   
    27    13    14 1   
    28    13    15 1   
    29    14    42 1   
    30    14    43 1   
    31    14    44 1   
    32    15    16 2   
    33    15    17 1   
    34    17    18 2   
    35    17    45 1   
    36    18    19 1   
    37    18    46 1   
    38    19    20 ar  
    39    19    28 ar  
    40    20    21 ar  
    41    20    47 1   
    42    21    22 1   
    43    21    26 ar  
    44    22    23 1   
    45    22    48 1   
    46    22    49 1   
    47    23    24 1   
    48    23    50 1   
    49    23    51 1   
    50    24    25 1   
    51    24    29 2   
    52    25    26 1   
    53    25    52 1   
    54    26    27 ar  
    55    27    28 ar  
    56    28    53 1   
@<TRIPOS>SUBSTRUCTURE
     1 IMJ         1 TEMP              0 ****  ****    0 ROOT
