@<TRIPOS>MOLECULE
IMK
   39    41     1     0     0
SMALL
No Charge or Current Charge


@<TRIPOS>ATOM
      1 C1           0.8840    -0.3890     0.4190 c6         1 IMK       0.166000
      2 C2           1.4850    -1.3030    -0.7020 c6         1 IMK       0.117300
      3 O2           0.8900    -2.6210    -0.7170 oh         1 IMK      -0.718000
      4 C3           3.0230    -1.4310    -0.4960 c6         1 IMK       0.097300
      5 O3           3.6030    -2.2260    -1.5440 oh         1 IMK      -0.667000
      6 C4           3.6870    -0.0270    -0.4370 c6         1 IMK       0.139300
      7 O4           5.1000    -0.1800    -0.2160 oh         1 IMK      -0.719000
      8 C5           2.9980     0.8210     0.6770 c6         1 IMK       0.168300
      9 O5           1.5710     0.8930     0.4170 os         1 IMK      -0.412000
     10 C6           3.5570     2.2790     0.7510 c3         1 IMK       0.172600
     11 O6           2.8740     3.1030     1.7200 oh         1 IMK      -0.711000
     12 C7          -4.0050    -1.0850    -0.3330 ca         1 IMK      -0.047000
     13 C8          -2.7360    -0.5350    -0.1040 ca         1 IMK       0.070400
     14 C9          -2.5780     0.8110     0.0370 ca         1 IMK      -0.080200
     15 C10         -3.6420     1.7150    -0.0370 ca         1 IMK      -0.112000
     16 C11         -4.9290     1.1860    -0.2660 ca         1 IMK      -0.092000
     17 C12         -5.1170    -0.2120    -0.4130 ca         1 IMK      -0.102300
     18 N1          -1.2520     1.0280     0.2440 na         1 IMK      -0.297600
     19 C13         -0.6160    -0.2140     0.2240 cc         1 IMK       0.425800
     20 N2          -1.5190    -1.2000     0.0100 nd         1 IMK      -0.558100
     21 H1           1.0580    -0.8640     1.3960 h1         1 IMK       0.046700
     22 H2           1.3060    -0.8020    -1.6670 h1         1 IMK       0.081700
     23 HO2         -0.0870    -2.4880    -0.6050 ho         1 IMK       0.515000
     24 H3           3.1890    -1.9270     0.4730 h1         1 IMK       0.051700
     25 HO3          2.9480    -2.9450    -1.7040 ho         1 IMK       0.453000
     26 H4           3.5150     0.4760    -1.4010 h1         1 IMK       0.061700
     27 HO4          5.3460    -0.9790    -0.7450 ho         1 IMK       0.522000
     28 H5           3.1560     0.3420     1.6540 h1         1 IMK       0.056700
     29 H61          4.6260     2.2250     0.9940 h1         1 IMK       0.038200
     30 H62          3.4730     2.7270    -0.2490 h1         1 IMK       0.038200
     31 HO6          3.2700     4.0040     1.6610 ho         1 IMK       0.505000
     32 H7          -4.1250    -2.1600    -0.4460 ha         1 IMK       0.126000
     33 H10         -3.4850     2.7860     0.0780 ha         1 IMK       0.116000
     34 H11         -5.7810     1.8600    -0.3310 ha         1 IMK       0.110000
     35 HN1         -0.7880     1.9160     0.3850 hn         1 IMK       0.358000
     36 H141        -6.6040    -1.7960    -0.2850 hc         1 IMK       0.039700
     37 H142        -7.2780    -0.1660    -0.1690 hc         1 IMK       0.039700
     38 H143        -6.7350    -0.7890    -1.7370 hc         1 IMK       0.039700
     39 C14         -6.5090    -0.7720    -0.6640 c3         1 IMK      -0.041800
@<TRIPOS>BOND
     1     1     2 1   
     2     1     9 1   
     3     1    19 1   
     4     1    21 1   
     5     2     3 1   
     6     2     4 1   
     7     2    22 1   
     8     3    23 1   
     9     4     5 1   
    10     4     6 1   
    11     4    24 1   
    12     5    25 1   
    13     6     7 1   
    14     6     8 1   
    15     6    26 1   
    16     7    27 1   
    17     8     9 1   
    18     8    10 1   
    19     8    28 1   
    20    10    11 1   
    21    10    29 1   
    22    10    30 1   
    23    11    31 1   
    24    12    13 ar  
    25    12    17 ar  
    26    12    32 1   
    27    13    14 ar  
    28    13    20 1   
    29    14    15 ar  
    30    14    18 1   
    31    15    16 ar  
    32    15    33 1   
    33    16    17 ar  
    34    16    34 1   
    35    17    39 1   
    36    18    19 1   
    37    18    35 1   
    38    19    20 2   
    39    36    39 1   
    40    37    39 1   
    41    38    39 1   
@<TRIPOS>SUBSTRUCTURE
     1 IMK         1 TEMP              0 ****  ****    0 ROOT
