@<TRIPOS>MOLECULE
IMK
   39    41     1     0     0
SMALL
bcc


@<TRIPOS>ATOM
      1 C1           0.8720    -0.1490     0.5560 c6         1 IMK       0.142800
      2 C2           1.4090    -1.4570    -0.0250 c6         1 IMK       0.094100
      3 O2           0.8090    -2.5080     0.6900 oh         1 IMK      -0.595800
      4 C3           2.9290    -1.4630     0.1000 c6         1 IMK       0.074100
      5 O3           3.4990    -2.5810    -0.5480 oh         1 IMK      -0.604800
      6 C4           3.5190    -0.2070    -0.5310 c6         1 IMK       0.116100
      7 O4           4.9040    -0.1230    -0.3060 oh         1 IMK      -0.596800
      8 C5           2.8550     1.0310     0.0730 c6         1 IMK       0.145100
      9 O5           1.4540     0.9500    -0.1000 os         1 IMK      -0.365600
     10 C6           3.3260     2.3080    -0.5900 c3         1 IMK       0.149400
     11 O6           2.7280     3.4020     0.0610 oh         1 IMK      -0.588800
     12 C7          -3.6650     0.1340    -1.3120 ca         1 IMK      -0.065000
     13 C8          -2.5540     0.0670    -0.4690 ca         1 IMK       0.070400
     14 C9          -2.7280     0.0950     0.9220 ca         1 IMK      -0.080200
     15 C10         -3.9860     0.1860     1.5090 ca         1 IMK      -0.130000
     16 C11         -5.0680     0.2500     0.6530 ca         1 IMK      -0.110000
     17 C12         -4.9270     0.2250    -0.7510 ca         1 IMK      -0.102300
     18 N1          -1.4600     0.0180     1.4310 na         1 IMK      -0.247300
     19 C13         -0.6080    -0.0530     0.3800 cc         1 IMK       0.425800
     20 N2          -1.2180    -0.0280    -0.7730 nd         1 IMK      -0.558100
     21 H1           1.1050    -0.1250     1.6330 h1         1 IMK       0.046700
     22 H2           1.1370    -1.4940    -1.0890 h1         1 IMK       0.081700
     23 HO2          0.9020    -3.3190     0.1820 ho         1 IMK       0.416000
     24 H3           3.1870    -1.4630     1.1690 h1         1 IMK       0.051700
     25 HO3          3.5930    -3.2980     0.0850 ho         1 IMK       0.414000
     26 H4           3.2960    -0.2220    -1.6110 h1         1 IMK       0.061700
     27 HO4          5.3060    -0.9330    -0.6390 ho         1 IMK       0.423000
     28 H5           3.0990     1.0750     1.1470 h1         1 IMK       0.056700
     29 H61          4.4180     2.3460    -0.5270 h1         1 IMK       0.038200
     30 H62          3.0660     2.2730    -1.6570 h1         1 IMK       0.038200
     31 HO6          3.0910     4.2080    -0.3170 ho         1 IMK       0.406000
     32 H7          -3.5380     0.1150    -2.3890 ha         1 IMK       0.144000
     33 H10         -4.1170     0.2080     2.5830 ha         1 IMK       0.134000
     34 H11         -6.0650     0.3230     1.0730 ha         1 IMK       0.128000
     35 HN1         -1.2010     0.0220     2.4050 hn         1 IMK       0.307700
     36 H141        -6.8160    -0.5520    -1.4410 hc         1 IMK       0.039700
     37 H142        -6.7320     1.2000    -1.4140 hc         1 IMK       0.039700
     38 H143        -5.8950     0.3010    -2.6750 hc         1 IMK       0.039700
     39 C14         -6.1530     0.2970    -1.6160 c3         1 IMK      -0.041800
@<TRIPOS>BOND
     1     1     2 1   
     2     1     9 1   
     3     1    19 1   
     4     1    21 1   
     5     2     3 1   
     6     2     4 1   
     7     2    22 1   
     8     3    23 1   
     9     4     5 1   
    10     4     6 1   
    11     4    24 1   
    12     5    25 1   
    13     6     7 1   
    14     6     8 1   
    15     6    26 1   
    16     7    27 1   
    17     8     9 1   
    18     8    10 1   
    19     8    28 1   
    20    10    11 1   
    21    10    29 1   
    22    10    30 1   
    23    11    31 1   
    24    12    13 ar  
    25    12    17 ar  
    26    12    32 1   
    27    13    14 ar  
    28    13    20 1   
    29    14    15 ar  
    30    14    18 1   
    31    15    16 ar  
    32    15    33 1   
    33    16    17 ar  
    34    16    34 1   
    35    17    39 1   
    36    18    19 1   
    37    18    35 1   
    38    19    20 2   
    39    36    39 1   
    40    37    39 1   
    41    38    39 1   
@<TRIPOS>SUBSTRUCTURE
     1 IMK         1 TEMP              0 ****  ****    0 ROOT
