@<TRIPOS>MOLECULE
IML
   24    23     1     0     0
SMALL
bcc


@<TRIPOS>ATOM
      1 N            8.8790    38.7340    14.9830 n7         1 IML      -0.816200
      2 CA           7.7110    39.4250    14.4270 c3         1 IML       0.038500
      3 C            6.4450    39.1120    15.2760 c          1 IML       0.900600
      4 O            5.6120    38.2960    14.8320 o          1 IML      -0.839800
      5 OXT          6.4040    39.6760    16.3920 o          1 IML      -0.839800
      6 CB           7.5480    39.1720    12.9250 c3         1 IML      -0.035700
      7 CN           8.7830    37.2880    15.0380 c3         1 IML       0.158100
      8 CG2          6.5170    40.1360    12.3390 c3         1 IML      -0.076100
      9 CG1          8.8690    39.2520    12.1490 c3         1 IML      -0.058400
     10 CD1          9.6290    40.5670    12.2760 c3         1 IML      -0.078100
     11 H            9.0190    39.0810    15.9230 hn         1 IML       0.350800
     12 HA           7.9270    40.4930    14.5540 h1         1 IML       0.036700
     13 HB           7.1580    38.1590    12.7830 hc         1 IML       0.056700
     14 HN1          9.6920    36.8890    15.4900 h1         1 IML       0.013700
     15 HN2          7.9320    36.8940    15.6090 h1         1 IML       0.013700
     16 HN3          8.7170    36.8740    14.0310 h1         1 IML       0.013700
     17 HG21         6.3890    39.9680    11.2670 hc         1 IML       0.021367
     18 HG22         5.5420    40.0110    12.8080 hc         1 IML       0.021367
     19 HG23         6.8160    41.1780    12.4730 hc         1 IML       0.021367
     20 HG12         9.5250    38.4370    12.4600 hc         1 IML       0.018700
     21 HG13         8.6510    39.0690    11.0920 hc         1 IML       0.018700
     22 HD11        10.5380    40.5460    11.6720 hc         1 IML       0.019367
     23 HD12         9.0390    41.4200    11.9360 hc         1 IML       0.019367
     24 HD13         9.9270    40.7560    13.3070 hc         1 IML       0.019367
@<TRIPOS>BOND
     1     1     2 1   
     2     1     7 1   
     3     1    11 1   
     4     2     3 1   
     5     2     6 1   
     6     2    12 1   
     7     3     4 1   
     8     3     5 1   
     9     6     8 1   
    10     6     9 1   
    11     6    13 1   
    12     7    14 1   
    13     7    15 1   
    14     7    16 1   
    15     8    17 1   
    16     8    18 1   
    17     8    19 1   
    18     9    10 1   
    19     9    20 1   
    20     9    21 1   
    21    10    22 1   
    22    10    23 1   
    23    10    24 1   
@<TRIPOS>SUBSTRUCTURE
     1 IML         1 TEMP              0 ****  ****    0 ROOT
