@<TRIPOS>MOLECULE
IML
   24    23     1     0     0
SMALL
No Charge or Current Charge


@<TRIPOS>ATOM
      1 N            8.9200    38.5810    15.0590 n7         1 IML      -0.871400
      2 CA           7.7770    39.3950    14.4880 c3         1 IML       0.038500
      3 C            6.4150    39.2470    15.2930 c          1 IML       0.690000
      4 O            5.6620    38.3120    15.0440 o          1 IML      -0.734500
      5 OXT          6.1780    40.0670    16.1710 o          1 IML      -0.734500
      6 CB           7.6030    39.1830    12.9400 c3         1 IML      -0.035700
      7 CN           8.7560    37.1130    15.0630 c3         1 IML       0.158100
      8 CG2          6.5000    40.1030    12.3510 c3         1 IML      -0.076100
      9 CG1          8.9270    39.3150    12.1220 c3         1 IML      -0.058400
     10 CD1          9.6150    40.6980    12.1810 c3         1 IML      -0.078100
     11 H            9.0580    38.8770    16.0340 hn         1 IML       0.406000
     12 HA           8.0510    40.4520    14.6080 h1         1 IML       0.036700
     13 HB           7.2530    38.1540    12.7890 hc         1 IML       0.056700
     14 HN1          9.6500    36.6330    15.4830 h1         1 IML       0.013700
     15 HN2          7.8950    36.8140    15.6740 h1         1 IML       0.013700
     16 HN3          8.6130    36.7250    14.0460 h1         1 IML       0.013700
     17 HG21         6.4280    39.9760    11.2640 hc         1 IML       0.021367
     18 HG22         5.5160    39.8660    12.7730 hc         1 IML       0.021367
     19 HG23         6.7120    41.1580    12.5600 hc         1 IML       0.021367
     20 HG12         9.6430    38.5530    12.4520 hc         1 IML       0.018700
     21 HG13         8.7150    39.0810    11.0720 hc         1 IML       0.018700
     22 HD11        10.5320    40.6870    11.5810 hc         1 IML       0.019367
     23 HD12         8.9630    41.4830    11.7820 hc         1 IML       0.019367
     24 HD13         9.8890    40.9600    13.2100 hc         1 IML       0.019367
@<TRIPOS>BOND
     1     1     2 1   
     2     1     7 1   
     3     1    11 1   
     4     2     3 1   
     5     2     6 1   
     6     2    12 1   
     7     3     4 1   
     8     3     5 1   
     9     6     8 1   
    10     6     9 1   
    11     6    13 1   
    12     7    14 1   
    13     7    15 1   
    14     7    16 1   
    15     8    17 1   
    16     8    18 1   
    17     8    19 1   
    18     9    10 1   
    19     9    20 1   
    20     9    21 1   
    21    10    22 1   
    22    10    23 1   
    23    10    24 1   
@<TRIPOS>SUBSTRUCTURE
     1 IML         1 TEMP              0 ****  ****    0 ROOT
