@<TRIPOS>MOLECULE
IMM
   40    42     1     0     0
SMALL
No Charge or Current Charge


@<TRIPOS>ATOM
      1 N1          -0.6180     1.4530     1.6480 n          1 IMM      -0.101600
      2 C2          -1.7520     1.3720     2.4750 cc         1 IMM      -0.049600
      3 C3          -1.4360     0.6110     3.5930 cd         1 IMM      -0.013400
      4 C4          -0.0370     0.2140     3.4580 ca         1 IMM      -0.019800
      5 C5           0.7830    -0.5370     4.3110 ca         1 IMM      -0.066000
      6 C6           2.1320    -0.7320     3.9460 ca         1 IMM       0.094100
      7 C7           2.6330    -0.1600     2.7430 ca         1 IMM      -0.188000
      8 C8           1.7880     0.5920     1.9000 ca         1 IMM      -0.106000
      9 C9           0.4450     0.7400     2.2770 ca         1 IMM      -0.117000
     10 C10         -0.5220     2.1930     0.4430 c          1 IMM       0.633700
     11 C11          0.0440     1.4860    -0.7760 ca         1 IMM      -0.130600
     12 C12          0.4520     2.2480    -1.8950 ca         1 IMM      -0.064500
     13 C13          0.9740     1.6170    -3.0390 ca         1 IMM      -0.097500
     14 C14          1.0850     0.2210    -3.0820 ca         1 IMM       0.210000
     15 C15          0.6700    -0.5510    -1.9870 ca         1 IMM      -0.097500
     16 C16          0.1480     0.0740    -0.8410 ca         1 IMM      -0.064500
     17 C17         -3.0830     1.9990     2.1310 c3         1 IMM      -0.021900
     18 C18         -2.3410     0.2600     4.7540 c3         1 IMM      -0.175200
     19 C19         -3.0090    -1.1070     4.5490 c          1 IMM       0.723000
     20 C20          4.3150    -1.7300     4.5210 c3         1 IMM       0.156900
     21 O1          -1.0060     3.3170     0.3430 o          1 IMM      -0.557100
     22 O2           2.9270    -1.4740     4.7970 os         1 IMM      -0.343100
     23 O3          -4.0590    -1.1470     3.9260 o          1 IMM      -0.725500
     24 O4          -2.4020    -2.1040     4.9130 o          1 IMM      -0.725500
     25 I1           1.8870    -0.7470    -4.8450 i          1 IMM      -0.333000
     26 H5           0.3950    -0.9570     5.2350 ha         1 IMM       0.151000
     27 H7           3.6710    -0.2860     2.4500 ha         1 IMM       0.100000
     28 H8           2.1740     1.0390     0.9870 ha         1 IMM       0.105000
     29 H12          0.3740     3.3340    -1.8780 ha         1 IMM       0.140500
     30 H13          1.2910     2.2110    -3.8920 ha         1 IMM       0.126500
     31 H15          0.7490    -1.6340    -2.0290 ha         1 IMM       0.126500
     32 H16         -0.1830    -0.5510    -0.0130 ha         1 IMM       0.140500
     33 H171        -3.2990     1.9120     1.0600 hc         1 IMM       0.045367
     34 H172        -3.9080     1.5130     2.6640 hc         1 IMM       0.045367
     35 H173        -3.0920     3.0630     2.3960 hc         1 IMM       0.045367
     36 H181        -1.7040     0.2290     5.6460 hc         1 IMM       0.034700
     37 H182        -3.1050     1.0430     4.8160 hc         1 IMM       0.034700
     38 H201         4.7550    -2.3390     5.3210 h1         1 IMM       0.028367
     39 H202         4.4300    -2.2760     3.5760 h1         1 IMM       0.028367
     40 H203         4.8800    -0.7920     4.4570 h1         1 IMM       0.028367
@<TRIPOS>BOND
     1     1     2 1   
     2     1     9 1   
     3     1    10 1   
     4     2     3 2   
     5     2    17 1   
     6     3     4 1   
     7     3    18 1   
     8     4     5 ar  
     9     4     9 ar  
    10     5     6 ar  
    11     5    26 1   
    12     6     7 ar  
    13     6    22 1   
    14     7     8 ar  
    15     7    27 1   
    16     8     9 ar  
    17     8    28 1   
    18    10    11 1   
    19    10    21 2   
    20    11    12 ar  
    21    11    16 ar  
    22    12    13 ar  
    23    12    29 1   
    24    13    14 ar  
    25    13    30 1   
    26    14    15 ar  
    27    14    25 1   
    28    15    16 ar  
    29    15    31 1   
    30    16    32 1   
    31    17    33 1   
    32    17    34 1   
    33    17    35 1   
    34    18    19 1   
    35    18    36 1   
    36    18    37 1   
    37    19    23 1   
    38    19    24 1   
    39    20    22 1   
    40    20    38 1   
    41    20    39 1   
    42    20    40 1   
@<TRIPOS>SUBSTRUCTURE
     1 IMM         1 TEMP              0 ****  ****    0 ROOT
