@<TRIPOS>MOLECULE
IMM
   40    42     1     0     0
SMALL
bcc


@<TRIPOS>ATOM
      1 N1          -0.7810     1.3400     1.5570 n          1 IMM      -0.261200
      2 C2          -1.8250     1.3590     2.5050 cc         1 IMM      -0.049600
      3 C3          -1.4430     0.6640     3.6070 cd         1 IMM      -0.013400
      4 C4          -0.0960     0.2110     3.3850 ca         1 IMM      -0.019800
      5 C5           0.7780    -0.5000     4.1960 ca         1 IMM      -0.084000
      6 C6           2.0680    -0.7460     3.7420 ca         1 IMM       0.094100
      7 C7           2.4740    -0.2710     2.4880 ca         1 IMM      -0.206000
      8 C8           1.5990     0.4330     1.6710 ca         1 IMM      -0.124000
      9 C9           0.3030     0.6450     2.1130 ca         1 IMM      -0.024400
     10 C10         -0.7930     2.0100     0.3480 c          1 IMM       0.700700
     11 C11         -0.0080     1.4080    -0.7610 ca         1 IMM      -0.130600
     12 C12          0.6910     2.2440    -1.6250 ca         1 IMM      -0.082500
     13 C13          1.3880     1.7160    -2.7000 ca         1 IMM      -0.115500
     14 C14          1.3490     0.3460    -2.9240 ca         1 IMM       0.072900
     15 C15          0.6290    -0.4990    -2.0900 ca         1 IMM      -0.115500
     16 C16         -0.0410     0.0370    -1.0020 ca         1 IMM      -0.082500
     17 C17         -3.1480     1.9800     2.2270 c3         1 IMM      -0.021900
     18 C18         -2.2220     0.4060     4.8450 c3         1 IMM      -0.175200
     19 C19         -2.6960    -1.0580     5.0260 c          1 IMM       0.933600
     20 C20          4.1870    -1.7400     4.1570 c3         1 IMM       0.133700
     21 O1          -1.4420     3.0180     0.1740 o          1 IMM      -0.557100
     22 O2           2.8710    -1.4450     4.5750 os         1 IMM      -0.319900
     23 O3          -2.4310    -1.8670     4.1210 o          1 IMM      -0.830800
     24 O4          -3.3150    -1.2870     6.0840 o          1 IMM      -0.830800
     25 I1           2.3940    -0.4610    -4.5570 i          1 IMM      -0.195900
     26 H5           0.4730    -0.8460     5.1760 ha         1 IMM       0.169000
     27 H7           3.4800    -0.4360     2.1280 ha         1 IMM       0.118000
     28 H8           1.9610     0.8010     0.7230 ha         1 IMM       0.123000
     29 H12          0.7150     3.3110    -1.4510 ha         1 IMM       0.158500
     30 H13          1.9480     2.3740    -3.3500 ha         1 IMM       0.144500
     31 H15          0.5850    -1.5640    -2.2720 ha         1 IMM       0.144500
     32 H16         -0.5990    -0.6230    -0.3510 ha         1 IMM       0.158500
     33 H171        -3.5660     1.6450     1.2760 hc         1 IMM       0.045367
     34 H172        -3.8490     1.6940     3.0070 hc         1 IMM       0.045367
     35 H173        -3.1040     3.0680     2.2000 hc         1 IMM       0.045367
     36 H181        -1.6190     0.6790     5.7180 hc         1 IMM       0.034700
     37 H182        -3.0970     1.0590     4.8930 hc         1 IMM       0.034700
     38 H201         4.6430    -2.3210     4.9550 h1         1 IMM       0.028367
     39 H202         4.2040    -2.3320     3.2390 h1         1 IMM       0.028367
     40 H203         4.7830    -0.8360     4.0020 h1         1 IMM       0.028367
@<TRIPOS>BOND
     1     1     2 1   
     2     1     9 1   
     3     1    10 1   
     4     2     3 2   
     5     2    17 1   
     6     3     4 1   
     7     3    18 1   
     8     4     5 ar  
     9     4     9 ar  
    10     5     6 ar  
    11     5    26 1   
    12     6     7 ar  
    13     6    22 1   
    14     7     8 ar  
    15     7    27 1   
    16     8     9 ar  
    17     8    28 1   
    18    10    11 1   
    19    10    21 2   
    20    11    12 ar  
    21    11    16 ar  
    22    12    13 ar  
    23    12    29 1   
    24    13    14 ar  
    25    13    30 1   
    26    14    15 ar  
    27    14    25 1   
    28    15    16 ar  
    29    15    31 1   
    30    16    32 1   
    31    17    33 1   
    32    17    34 1   
    33    17    35 1   
    34    18    19 1   
    35    18    36 1   
    36    18    37 1   
    37    19    23 1   
    38    19    24 1   
    39    20    22 1   
    40    20    38 1   
    41    20    39 1   
    42    20    40 1   
@<TRIPOS>SUBSTRUCTURE
     1 IMM         1 TEMP              0 ****  ****    0 ROOT
