@<TRIPOS>MOLECULE
IMN
   40    42     1     0     0
SMALL
No Charge or Current Charge


@<TRIPOS>ATOM
      1 C            0.3220     0.5170     0.8130 ca         1 IMN      -0.117000
      2 C1          -0.1170     0.3050     2.1010 ca         1 IMN      -0.020800
      3 C2           0.7290    -0.2110     3.0940 ca         1 IMN      -0.066000
      4 C3           2.0660    -0.4990     2.7590 ca         1 IMN       0.093100
      5 C4           2.5330    -0.2460     1.4420 ca         1 IMN      -0.187000
      6 C5           1.6630     0.2760     0.4630 ca         1 IMN      -0.106000
      7 C6           4.2650    -1.3300     3.5120 c3         1 IMN       0.156900
      8 C7          -1.4880     0.7450     2.2110 cc         1 IMN      -0.014400
      9 C8          -1.7970     1.2110     0.9360 cd         1 IMN      -0.048600
     10 C10          0.0870     0.8260    -2.3530 ca         1 IMN      -0.146600
     11 C11          0.5700     1.4880    -3.5040 ca         1 IMN      -0.054000
     12 C12          1.2400     0.7730    -4.5120 ca         1 IMN      -0.121000
     13 C13          1.4230    -0.6120    -4.3870 ca         1 IMN       0.132000
     14 C14          0.9300    -1.2870    -3.2610 ca         1 IMN      -0.121000
     15 C15          0.2590    -0.5760    -2.2500 ca         1 IMN      -0.054000
     16 C16         -3.1450     1.7770     0.5430 c3         1 IMN      -0.022900
     17 C17         -2.3400     0.7300     3.4600 c3         1 IMN      -0.175200
     18 C18         -3.0380    -0.6240     3.6560 c          1 IMN       0.722000
     19 N           -0.7400     1.0510     0.0130 n          1 IMN      -0.103600
     20 O            2.8840    -1.0060     3.7490 os         1 IMN      -0.343100
     21 O1          -1.2350     2.6540    -1.5840 o          1 IMN      -0.557100
     22 O2          -4.1200    -0.7980     3.1140 o          1 IMN      -0.725500
     23 O3          -2.4290    -1.5060     4.2430 o          1 IMN      -0.725500
     24 Cl           2.2600    -1.5060    -5.6500 cl         1 IMN      -0.217000
     25 H2           0.3680    -0.3780     4.1040 ha         1 IMN       0.150000
     26 H4           3.5650    -0.4400     1.1640 ha         1 IMN       0.100000
     27 H5           2.0390     0.4870    -0.5340 ha         1 IMN       0.105000
     28 H61          4.7260    -1.7210     4.4280 h1         1 IMN       0.027700
     29 H62          4.3570    -2.0960     2.7310 h1         1 IMN       0.027700
     30 H63          4.8260    -0.4400     3.2020 h1         1 IMN       0.027700
     31 H11          0.4350     2.5630    -3.6160 ha         1 IMN       0.141000
     32 H12          1.6160     1.2920    -5.3900 ha         1 IMN       0.128500
     33 H14          1.0640    -2.3620    -3.1720 ha         1 IMN       0.128500
     34 H15         -0.1300    -1.1240    -1.3940 ha         1 IMN       0.141000
     35 H161        -3.4120     1.5030    -0.4840 hc         1 IMN       0.045367
     36 H162        -3.9490     1.4010     1.1850 hc         1 IMN       0.045367
     37 H163        -3.1460     2.8710     0.6130 hc         1 IMN       0.045367
     38 H171        -1.6600     0.9180     4.2980 hc         1 IMN       0.034700
     39 H172        -3.0880     1.5220     3.3480 hc         1 IMN       0.034700
     40 C9          -0.6490     1.6150    -1.2880 c          1 IMN       0.636700
@<TRIPOS>BOND
     1     1     2 ar  
     2     1     6 ar  
     3     1    19 1   
     4     2     3 ar  
     5     2     8 1   
     6     3     4 ar  
     7     3    25 1   
     8     4     5 ar  
     9     4    20 1   
    10     5     6 ar  
    11     5    26 1   
    12     6    27 1   
    13     7    20 1   
    14     7    28 1   
    15     7    29 1   
    16     7    30 1   
    17     8     9 2   
    18     8    17 1   
    19     9    16 1   
    20     9    19 1   
    21    10    11 ar  
    22    10    15 ar  
    23    10    40 1   
    24    11    12 ar  
    25    11    31 1   
    26    12    13 ar  
    27    12    32 1   
    28    13    14 ar  
    29    13    24 1   
    30    14    15 ar  
    31    14    33 1   
    32    15    34 1   
    33    16    35 1   
    34    16    36 1   
    35    16    37 1   
    36    17    18 1   
    37    17    38 1   
    38    17    39 1   
    39    18    22 1   
    40    18    23 1   
    41    19    40 1   
    42    21    40 2   
@<TRIPOS>SUBSTRUCTURE
     1 IMN         1 TEMP              0 ****  ****    0 ROOT
