@<TRIPOS>MOLECULE
IMN
   40    42     1     0     0
SMALL
bcc


@<TRIPOS>ATOM
      1 C            0.3100     0.5650     0.7240 ca         1 IMN      -0.024400
      2 C1          -0.1140     0.3390     2.0400 ca         1 IMN      -0.020800
      3 C2           0.7500    -0.2180     2.9750 ca         1 IMN      -0.084000
      4 C3           2.0530    -0.5160     2.5950 ca         1 IMN       0.093100
      5 C4           2.4820    -0.2470     1.2880 ca         1 IMN      -0.205000
      6 C5           1.6180     0.3010     0.3490 ca         1 IMN      -0.124000
      7 C6           4.1820    -1.3690     3.2220 c3         1 IMN       0.133700
      8 C7          -1.4710     0.7990     2.1560 cc         1 IMN      -0.014400
      9 C8          -1.8340     1.3000     0.9470 cd         1 IMN      -0.048600
     10 C10          0.0420     0.8180    -2.2420 ca         1 IMN      -0.146600
     11 C11          0.7420     1.4890    -3.2400 ca         1 IMN      -0.072000
     12 C12          1.4550     0.7820    -4.1940 ca         1 IMN      -0.139000
     13 C13          1.4320    -0.6050    -4.1590 ca         1 IMN       0.040400
     14 C14          0.7150    -1.2920    -3.1910 ca         1 IMN      -0.139000
     15 C15          0.0280    -0.5750    -2.2270 ca         1 IMN      -0.072000
     16 C16         -3.1590     1.8360     0.5370 c3         1 IMN      -0.022900
     17 C17         -2.2770     0.7160     3.4000 c3         1 IMN      -0.175200
     18 C18         -2.7190    -0.7160     3.7910 c          1 IMN       0.932600
     19 N           -0.7680     1.1430     0.0390 n          1 IMN      -0.263200
     20 O            2.8460    -1.0540     3.5490 os         1 IMN      -0.319900
     21 O1          -1.4020     2.5650    -1.6170 o          1 IMN      -0.557100
     22 O2          -2.4270    -1.6430     3.0180 o          1 IMN      -0.830800
     23 O3          -3.3440    -0.8040     4.8680 o          1 IMN      -0.830800
     24 CL           2.3110    -1.4950    -5.3520 cl         1 IMN      -0.125400
     25 H2           0.4260    -0.4040     3.9920 ha         1 IMN       0.168000
     26 H4           3.4960    -0.4570     0.9780 ha         1 IMN       0.118000
     27 H5           1.9980     0.5100    -0.6400 ha         1 IMN       0.123000
     28 H61          4.6320    -1.7850     4.1200 h1         1 IMN       0.027700
     29 H62          4.2470    -2.1130     2.4220 h1         1 IMN       0.027700
     30 H63          4.7530    -0.4850     2.9240 h1         1 IMN       0.027700
     31 H11          0.7500     2.5710    -3.2670 ha         1 IMN       0.159000
     32 H12          2.0150     1.3050    -4.9560 ha         1 IMN       0.146500
     33 H14          0.6930    -2.3730    -3.1850 ha         1 IMN       0.146500
     34 H15         -0.5260    -1.1110    -1.4680 ha         1 IMN       0.159000
     35 H161        -3.5560     1.3120    -0.3340 hc         1 IMN       0.045367
     36 H162        -3.8700     1.6970     1.3490 hc         1 IMN       0.045367
     37 H163        -3.1290     2.8970     0.2960 hc         1 IMN       0.045367
     38 H171        -1.7050     1.1360     4.2350 hc         1 IMN       0.034700
     39 H172        -3.1700     1.3430     3.3300 hc         1 IMN       0.034700
     40 C9          -0.7580     1.6010    -1.2670 c          1 IMN       0.703700
@<TRIPOS>BOND
     1     1     2 ar  
     2     1     6 ar  
     3     1    19 1   
     4     2     3 ar  
     5     2     8 1   
     6     3     4 ar  
     7     3    25 1   
     8     4     5 ar  
     9     4    20 1   
    10     5     6 ar  
    11     5    26 1   
    12     6    27 1   
    13     7    20 1   
    14     7    28 1   
    15     7    29 1   
    16     7    30 1   
    17     8     9 2   
    18     8    17 1   
    19     9    16 1   
    20     9    19 1   
    21    10    11 ar  
    22    10    15 ar  
    23    10    40 1   
    24    11    12 ar  
    25    11    31 1   
    26    12    13 ar  
    27    12    32 1   
    28    13    14 ar  
    29    13    24 1   
    30    14    15 ar  
    31    14    33 1   
    32    15    34 1   
    33    16    35 1   
    34    16    36 1   
    35    16    37 1   
    36    17    18 1   
    37    17    38 1   
    38    17    39 1   
    39    18    22 1   
    40    18    23 1   
    41    19    40 1   
    42    21    40 2   
@<TRIPOS>SUBSTRUCTURE
     1 IMN         1 TEMP              0 ****  ****    0 ROOT
