@<TRIPOS>MOLECULE
IMS
   55    57     1     0     0
SMALL
abcg2


@<TRIPOS>ATOM
      1 C2           1.2070     3.2920     0.4010 ca         1 IMS      -0.099000
      2 C3           0.6230     4.4460    -0.1060 ca         1 IMS       0.122100
      3 C4          -0.5830     4.3720    -0.8170 ca         1 IMS      -0.176000
      4 C5          -1.2180     3.1560    -1.0330 ca         1 IMS      -0.069000
      5 C6           0.7320     6.8090    -0.3510 c3         1 IMS       0.150900
      6 C7           0.9040     0.7390     0.5990 cc         1 IMS      -0.110400
      7 C8          -0.0710    -0.0920     0.1490 cd         1 IMS       0.002400
      8 O2           3.5680     0.7230    -0.5570 o          1 IMS      -0.593100
      9 C18          3.2600    -0.0220     0.3610 c          1 IMS       0.599100
     10 N2           3.8550    -1.2000     0.6090 ns         1 IMS      -0.506900
     11 C19          4.9330    -1.7740    -0.1720 c3         1 IMS       0.110700
     12 C21          6.1770    -1.9890     0.6910 c3         1 IMS      -0.085400
     13 C22          6.7590    -0.6900     1.2290 c3         1 IMS      -0.088100
     14 C20          4.4600    -3.0450    -0.8580 c3         1 IMS       0.142600
     15 O3           4.0800    -3.9830     0.1240 oh         1 IMS      -0.670000
     16 C17          2.1440     0.3400     1.3280 c3         1 IMS      -0.091200
     17 C1           0.5710     2.0750     0.1930 ca         1 IMS      -0.040800
     18 C16         -0.0660    -1.5800     0.2160 c3         1 IMS      -0.040900
     19 N           -1.0420     0.6700    -0.5250 n          1 IMS      -0.097600
     20 C           -0.6290     2.0080    -0.5260 ca         1 IMS      -0.109000
     21 O            1.2850     5.6010     0.1270 os         1 IMS      -0.344100
     22 O1          -2.6300     0.7990    -2.1340 o          1 IMS      -0.527100
     23 C10         -2.8810    -0.9570    -0.5960 ca         1 IMS      -0.156600
     24 C15         -3.1020    -1.0590     0.7740 ca         1 IMS      -0.058000
     25 C14         -3.8520    -2.1040     1.2870 ca         1 IMS      -0.115000
     26 C13         -4.3620    -3.0560     0.4180 ca         1 IMS       0.139000
     27 CL          -5.2790    -4.3770     1.0530 cl         1 IMS      -0.191000
     28 C12         -4.1560    -2.9690    -0.9520 ca         1 IMS      -0.115000
     29 C11         -3.4290    -1.9050    -1.4560 ca         1 IMS      -0.058000
     30 H2           2.1370     3.3490     0.9540 ha         1 IMS       0.134000
     31 H4          -1.0460     5.2620    -1.2190 ha         1 IMS       0.117000
     32 H5          -2.1400     3.1390    -1.5930 ha         1 IMS       0.135000
     33 H61          1.4080     7.6020    -0.0400 h1         1 IMS       0.038367
     34 H62          0.6540     6.8230    -1.4420 h1         1 IMS       0.038367
     35 H63         -0.2560     7.0050     0.0730 h1         1 IMS       0.038367
     36 HN2          3.5100    -1.7540     1.3770 hn         1 IMS       0.316500
     37 H19          5.1760    -1.0590    -0.9600 h1         1 IMS       0.085700
     38 H211         6.9260    -2.5020     0.0820 hc         1 IMS       0.048200
     39 H212         5.9440    -2.6650     1.5180 hc         1 IMS       0.048200
     40 H221         7.6490    -0.8800     1.8280 hc         1 IMS       0.035700
     41 H222         7.0440    -0.0200     0.4160 hc         1 IMS       0.035700
     42 H223         6.0440    -0.1600     1.8610 hc         1 IMS       0.035700
     43 H201         3.6230    -2.7970    -1.5220 h1         1 IMS       0.030200
     44 H202         5.2740    -3.4240    -1.4900 h1         1 IMS       0.030200
     45 HO3          3.6040    -4.6980    -0.3070 ho         1 IMS       0.444000
     46 H171         1.9460    -0.4680     2.0340 hc         1 IMS       0.064200
     47 H172         2.4990     1.1820     1.9290 hc         1 IMS       0.064200
     48 H161        -0.7050    -1.9770     1.0050 hc         1 IMS       0.052700
     49 H162        -0.3750    -2.0390    -0.7220 hc         1 IMS       0.052700
     50 H163         0.9480    -1.9210     0.4200 hc         1 IMS       0.052700
     51 H15         -2.7010    -0.3170     1.4540 ha         1 IMS       0.134000
     52 H14         -4.0340    -2.1740     2.3500 ha         1 IMS       0.136000
     53 H12         -4.5610    -3.7180    -1.6190 ha         1 IMS       0.136000
     54 H11         -3.2740    -1.8270    -2.5240 ha         1 IMS       0.134000
     55 C9          -2.1820     0.2180    -1.1710 c          1 IMS       0.634700
@<TRIPOS>BOND
     1     1     2 ar  
     2     1    17 ar  
     3     1    30 1   
     4     2     3 ar  
     5     2    21 1   
     6     3     4 ar  
     7     3    31 1   
     8     4    20 ar  
     9     4    32 1   
    10     5    21 1   
    11     5    33 1   
    12     5    34 1   
    13     5    35 1   
    14     6     7 2   
    15     6    16 1   
    16     6    17 1   
    17     7    18 1   
    18     7    19 1   
    19     8     9 2   
    20     9    10 1   
    21     9    16 1   
    22    10    11 1   
    23    10    36 1   
    24    11    12 1   
    25    11    14 1   
    26    11    37 1   
    27    12    13 1   
    28    12    38 1   
    29    12    39 1   
    30    13    40 1   
    31    13    41 1   
    32    13    42 1   
    33    14    15 1   
    34    14    43 1   
    35    14    44 1   
    36    15    45 1   
    37    16    46 1   
    38    16    47 1   
    39    17    20 ar  
    40    18    48 1   
    41    18    49 1   
    42    18    50 1   
    43    19    20 1   
    44    19    55 1   
    45    22    55 2   
    46    23    24 ar  
    47    23    29 ar  
    48    23    55 1   
    49    24    25 ar  
    50    24    51 1   
    51    25    26 ar  
    52    25    52 1   
    53    26    27 1   
    54    26    28 ar  
    55    28    29 ar  
    56    28    53 1   
    57    29    54 1   
@<TRIPOS>SUBSTRUCTURE
     1 IMS         1 TEMP              0 ****  ****    0 ROOT
