@<TRIPOS>MOLECULE
IMS
   55    57     1     0     0
SMALL
No Charge or Current Charge


@<TRIPOS>ATOM
      1 C2           1.2240     3.2920     0.3960 ca         1 IMS      -0.099000
      2 C3           0.6940     4.4470    -0.2100 ca         1 IMS       0.122100
      3 C4          -0.4940     4.3550    -0.9840 ca         1 IMS      -0.176000
      4 C5          -1.1430     3.1130    -1.1520 ca         1 IMS      -0.069000
      5 C6           0.9060     6.8770    -0.5960 c3         1 IMS       0.150900
      6 C7           0.9030     0.7650     0.7170 cc         1 IMS      -0.110400
      7 C8          -0.0770    -0.0740     0.1980 cd         1 IMS       0.002400
      8 O2           4.0090     1.1110     0.1950 o          1 IMS      -0.593100
      9 C18          3.3830     0.1900     0.7030 c          1 IMS       0.599100
     10 N2           3.7600    -1.1260     0.5560 ns         1 IMS      -0.506900
     11 C19          4.9050    -1.6040    -0.2300 c3         1 IMS       0.110700
     12 C21          6.0860    -2.0110     0.6900 c3         1 IMS      -0.085400
     13 C22          6.6310    -0.8660     1.5700 c3         1 IMS      -0.088100
     14 C20          4.4650    -2.7480    -1.1850 c3         1 IMS       0.142600
     15 O3           3.8360    -3.8220    -0.4610 oh         1 IMS      -0.670000
     16 C17          2.1200     0.4140     1.5440 c3         1 IMS      -0.091200
     17 C1           0.5580     2.0720     0.2170 ca         1 IMS      -0.040800
     18 C16          0.0020    -1.5850     0.3020 c3         1 IMS      -0.040900
     19 N           -1.0640     0.6260    -0.5400 n          1 IMS      -0.097600
     20 C           -0.5830     1.9750    -0.5440 ca         1 IMS      -0.109000
     21 O            1.3630     5.6400    -0.0200 os         1 IMS      -0.344100
     22 O1          -2.6900     0.6520    -2.1820 o          1 IMS      -0.527100
     23 C10         -2.9540    -1.0600    -0.5630 ca         1 IMS      -0.156600
     24 C15         -3.0250    -1.2180     0.8410 ca         1 IMS      -0.058000
     25 C14         -3.7330    -2.2960     1.4000 ca         1 IMS      -0.115000
     26 C13         -4.3900    -3.2140     0.5680 ca         1 IMS       0.139000
     27 Cl          -5.2760    -4.5600     1.2710 cl         1 IMS      -0.191000
     28 C12         -4.3510    -3.0510    -0.8250 ca         1 IMS      -0.115000
     29 C11         -3.6450    -1.9740    -1.3890 ca         1 IMS      -0.058000
     30 H2           2.1330     3.3520     0.9870 ha         1 IMS       0.134000
     31 H4          -0.9270     5.2320    -1.4560 ha         1 IMS       0.117000
     32 H5          -2.0570     3.0550    -1.7380 ha         1 IMS       0.135000
     33 H61          1.5830     7.6960    -0.3220 h1         1 IMS       0.038367
     34 H62          0.8790     6.8100    -1.6910 h1         1 IMS       0.038367
     35 H63         -0.0980     7.1290    -0.2330 h1         1 IMS       0.038367
     36 HN2          3.1750    -1.8260     0.9960 hn         1 IMS       0.316500
     37 H19          5.2580    -0.7830    -0.8700 h1         1 IMS       0.085700
     38 H211         6.9050    -2.3900     0.0660 hc         1 IMS       0.048200
     39 H212         5.7760    -2.8400     1.3380 hc         1 IMS       0.048200
     40 H221         7.5010    -1.2080     2.1430 hc         1 IMS       0.035700
     41 H222         6.9420    -0.0150     0.9520 hc         1 IMS       0.035700
     42 H223         5.8730    -0.5200     2.2820 hc         1 IMS       0.035700
     43 H201         3.7650    -2.3370    -1.9240 h1         1 IMS       0.030200
     44 H202         5.3420    -3.1170    -1.7340 h1         1 IMS       0.030200
     45 HO3          3.6040    -4.5150    -1.1180 ho         1 IMS       0.444000
     46 H171         1.9030    -0.4890     2.1260 hc         1 IMS       0.064200
     47 H172         2.3180     1.2360     2.2410 hc         1 IMS       0.064200
     48 H161        -0.4060    -1.9420     1.2540 hc         1 IMS       0.052700
     49 H162        -0.5280    -2.0870    -0.5150 hc         1 IMS       0.052700
     50 H163         1.0400    -1.9290     0.2440 hc         1 IMS       0.052700
     51 H15         -2.5420    -0.5010     1.5040 ha         1 IMS       0.134000
     52 H14         -3.7780    -2.4150     2.4800 ha         1 IMS       0.136000
     53 H12         -4.8700    -3.7580    -1.4680 ha         1 IMS       0.136000
     54 H11         -3.6250    -1.8580    -2.4720 ha         1 IMS       0.134000
     55 C9          -2.2220     0.1100    -1.1860 c          1 IMS       0.634700
@<TRIPOS>BOND
     1     1     2 ar  
     2     1    17 ar  
     3     1    30 1   
     4     2     3 ar  
     5     2    21 1   
     6     3     4 ar  
     7     3    31 1   
     8     4    20 ar  
     9     4    32 1   
    10     5    21 1   
    11     5    33 1   
    12     5    34 1   
    13     5    35 1   
    14     6     7 2   
    15     6    16 1   
    16     6    17 1   
    17     7    18 1   
    18     7    19 1   
    19     8     9 2   
    20     9    10 1   
    21     9    16 1   
    22    10    11 1   
    23    10    36 1   
    24    11    12 1   
    25    11    14 1   
    26    11    37 1   
    27    12    13 1   
    28    12    38 1   
    29    12    39 1   
    30    13    40 1   
    31    13    41 1   
    32    13    42 1   
    33    14    15 1   
    34    14    43 1   
    35    14    44 1   
    36    15    45 1   
    37    16    46 1   
    38    16    47 1   
    39    17    20 ar  
    40    18    48 1   
    41    18    49 1   
    42    18    50 1   
    43    19    20 1   
    44    19    55 1   
    45    22    55 2   
    46    23    24 ar  
    47    23    29 ar  
    48    23    55 1   
    49    24    25 ar  
    50    24    51 1   
    51    25    26 ar  
    52    25    52 1   
    53    26    27 1   
    54    26    28 ar  
    55    28    29 ar  
    56    28    53 1   
    57    29    54 1   
@<TRIPOS>SUBSTRUCTURE
     1 IMS         1 TEMP              0 ****  ****    0 ROOT
