@<TRIPOS>MOLECULE
IMT
   16    16     1     0     0
SMALL
No Charge or Current Charge


@<TRIPOS>ATOM
      1 N            2.7020     0.3220    -1.0250 nv         1 IMT      -0.994900
      2 CA           1.8720    -0.7080    -0.8740 cc         1 IMT       0.417900
      3 NB1          2.3720    -1.9150    -1.1440 nc         1 IMT      -0.706000
      4 CB           0.5810    -0.7190    -0.4770 cd         1 IMT      -0.349000
      5 CG1          1.3670    -2.7850    -0.9210 cd         1 IMT       0.386000
      6 NG2          0.2340    -2.0600    -0.5030 na         1 IMT      -0.139500
      7 CD          -1.0880    -2.6040    -0.1500 c3         1 IMT       0.089900
      8 C            1.4770    -4.3100    -1.1040 c          1 IMT       0.633500
      9 O            0.5040    -5.0240    -0.8760 o          1 IMT      -0.702500
     10 OXT          2.5410    -4.8010    -1.4780 o          1 IMT      -0.702500
     11 HN2          3.6880     0.1150    -1.1360 hn         1 IMT       0.411000
     12 H            2.4470     1.2160    -0.6180 hn         1 IMT       0.411000
     13 HB          -0.0900     0.0820    -0.1930 h4         1 IMT       0.127000
     14 HD1         -0.9890    -3.2980     0.6940 h1         1 IMT       0.039700
     15 HD2         -1.7620    -1.7870     0.1370 h1         1 IMT       0.039700
     16 HD3         -1.5130    -3.1310    -1.0130 h1         1 IMT       0.039700
@<TRIPOS>BOND
     1     1     2 1   
     2     1    11 1   
     3     1    12 1   
     4     2     3 1   
     5     2     4 2   
     6     3     5 2   
     7     4     6 1   
     8     4    13 1   
     9     5     6 1   
    10     5     8 1   
    11     6     7 1   
    12     7    14 1   
    13     7    15 1   
    14     7    16 1   
    15     8     9 1   
    16     8    10 1   
@<TRIPOS>SUBSTRUCTURE
     1 IMT         1 TEMP              0 ****  ****    0 ROOT
