@<TRIPOS>MOLECULE
IMT
   16    16     1     0     0
SMALL
abcg2


@<TRIPOS>ATOM
      1 N            2.7000     0.3960    -1.1290 nv         1 IMT      -0.994900
      2 CA           1.9010    -0.7250    -0.9180 cc         1 IMT       0.417900
      3 NB1          2.3570    -1.9690    -1.1790 nc         1 IMT      -0.706000
      4 CB           0.5920    -0.7830    -0.5090 cd         1 IMT      -0.349000
      5 CG1          1.3530    -2.7980    -0.9360 cd         1 IMT       0.386000
      6 NG2          0.2600    -2.1150    -0.5290 na         1 IMT      -0.139500
      7 CD          -1.0490    -2.6100    -0.1510 c3         1 IMT       0.089900
      8 C            1.4400    -4.2950    -1.0970 c          1 IMT       0.633500
      9 O            0.4220    -4.9510    -0.8040 o          1 IMT      -0.702500
     10 OXT          2.5280    -4.7300    -1.5100 o          1 IMT      -0.702500
     11 HN2          3.6790     0.1890    -0.9970 hn         1 IMT       0.411000
     12 H            2.4460     1.1790    -0.5460 hn         1 IMT       0.411000
     13 HB          -0.1110    -0.0200    -0.2210 h4         1 IMT       0.127000
     14 HD1         -0.9890    -3.2670     0.7120 h1         1 IMT       0.039700
     15 HD2         -1.6700    -1.7550     0.1020 h1         1 IMT       0.039700
     16 HD3         -1.5170    -3.1520    -0.9680 h1         1 IMT       0.039700
@<TRIPOS>BOND
     1     1     2 1   
     2     1    11 1   
     3     1    12 1   
     4     2     3 1   
     5     2     4 2   
     6     3     5 2   
     7     4     6 1   
     8     4    13 1   
     9     5     6 1   
    10     5     8 1   
    11     6     7 1   
    12     7    14 1   
    13     7    15 1   
    14     7    16 1   
    15     8     9 1   
    16     8    10 1   
@<TRIPOS>SUBSTRUCTURE
     1 IMT         1 TEMP              0 ****  ****    0 ROOT
