@<TRIPOS>MOLECULE
IMV
   35    38     1     0     0
SMALL
bcc


@<TRIPOS>ATOM
      1 O1          -1.5610     2.6860     1.1960 o          1 IMV      -0.811800
      2 C2          -2.3110     2.0540     0.4300 c          1 IMV       0.932200
      3 O3          -3.3550     2.4600    -0.1070 o          1 IMV      -0.811800
      4 C4          -1.9190     0.6140     0.1230 ca         1 IMV      -0.100600
      5 C5          -0.6000     0.2010    -0.1830 ca         1 IMV      -0.082300
      6 C6           0.5030     1.2410    -0.2350 c3         1 IMV       0.149300
      7 N7           1.7900     0.7100    -0.6050 n          1 IMV      -0.367000
      8 C8           2.2840     0.7080    -1.8790 c          1 IMV       0.702500
      9 O9           1.7060     1.1490    -2.8510 o          1 IMV      -0.600500
     10 C10          3.6600     0.0680    -1.8380 c5         1 IMV      -0.120100
     11 C11          3.8350    -0.2750    -0.3940 ca         1 IMV      -0.156300
     12 C12          4.8700    -0.8770     0.2900 ca         1 IMV      -0.087000
     13 C13          4.7460    -1.0730     1.6660 ca         1 IMV      -0.177000
     14 C14          3.5960    -0.6710     2.3310 ca         1 IMV      -0.101000
     15 C15          2.5420    -0.0640     1.6500 ca         1 IMV      -0.147000
     16 C16          2.6880     0.1280     0.2890 ca         1 IMV       0.078600
     17 C17         -0.3260    -1.1310    -0.4570 ca         1 IMV      -0.149000
     18 C18         -1.3130    -2.1230    -0.4170 ca         1 IMV      -0.146000
     19 C19         -2.5820    -1.7120    -0.1110 ca         1 IMV       0.024100
     20 O20         -3.7050    -2.4590     0.0290 os         1 IMV      -0.346900
     21 C21         -4.7740    -1.5350     0.1780 c5         1 IMV       0.323200
     22 O22         -4.1940    -0.2660     0.4290 os         1 IMV      -0.286900
     23 C23         -2.8730    -0.3780     0.1300 ca         1 IMV       0.072100
     24 H6           0.2520     2.0260    -0.9490 h1         1 IMV       0.095700
     25 H6A          0.5970     1.7330     0.7320 h1         1 IMV       0.095700
     26 H10          3.6810    -0.8050    -2.4950 hc         1 IMV       0.078700
     27 H10A         4.4090     0.7680    -2.2150 hc         1 IMV       0.078700
     28 H12          5.7640    -1.1960    -0.2310 ha         1 IMV       0.122000
     29 H13          5.5500    -1.5440     2.2160 ha         1 IMV       0.121000
     30 H14          3.5090    -0.8320     3.3980 ha         1 IMV       0.126000
     31 H15          1.6470     0.2380     2.1790 ha         1 IMV       0.163000
     32 H17          0.6790    -1.4370    -0.7130 ha         1 IMV       0.117000
     33 H18         -1.0740    -3.1590    -0.6150 ha         1 IMV       0.126000
     34 H21         -5.3660    -1.5000    -0.7430 h2         1 IMV       0.042700
     35 H21A        -5.4020    -1.8290     1.0200 h2         1 IMV       0.042700
@<TRIPOS>BOND
     1     1     2 1   
     2     2     3 1   
     3     2     4 1   
     4     4     5 ar  
     5     4    23 ar  
     6     5     6 1   
     7     5    17 ar  
     8     6     7 1   
     9     6    24 1   
    10     6    25 1   
    11     7     8 1   
    12     7    16 1   
    13     8     9 2   
    14     8    10 1   
    15    10    11 1   
    16    10    26 1   
    17    10    27 1   
    18    11    12 ar  
    19    11    16 ar  
    20    12    13 ar  
    21    12    28 1   
    22    13    14 ar  
    23    13    29 1   
    24    14    15 ar  
    25    14    30 1   
    26    15    16 ar  
    27    15    31 1   
    28    17    18 ar  
    29    17    32 1   
    30    18    19 ar  
    31    18    33 1   
    32    19    20 1   
    33    19    23 ar  
    34    20    21 1   
    35    21    22 1   
    36    21    34 1   
    37    21    35 1   
    38    22    23 1   
@<TRIPOS>SUBSTRUCTURE
     1 IMV         1 TEMP              0 ****  ****    0 ROOT
