@<TRIPOS>MOLECULE
IMV
   35    38     1     0     0
SMALL
No Charge or Current Charge


@<TRIPOS>ATOM
      1 O1          -2.0380     2.7560     0.9510 o          1 IMV      -0.706500
      2 C2          -2.3460     2.0760    -0.0180 c          1 IMV       0.721600
      3 O3          -2.8560     2.5320    -1.0310 o          1 IMV      -0.706500
      4 C4          -2.0140     0.6070     0.0160 ca         1 IMV      -0.100600
      5 C5          -0.6760     0.1280     0.1260 ca         1 IMV      -0.082300
      6 C6           0.5020     1.1100     0.1880 c3         1 IMV       0.149300
      7 N7           1.7620     0.6010    -0.3910 n          1 IMV      -0.207400
      8 C8           2.0760     0.7620    -1.7540 c          1 IMV       0.560000
      9 O9           1.3500     1.2510    -2.6120 o          1 IMV      -0.525000
     10 C10          3.5410     0.2480    -1.8810 c5         1 IMV      -0.120100
     11 C11          3.9060    -0.1300    -0.4570 ca         1 IMV      -0.156300
     12 C12          5.0910    -0.7050     0.0230 ca         1 IMV      -0.069000
     13 C13          5.1600    -1.0550     1.3880 ca         1 IMV      -0.159000
     14 C14          4.0470    -0.8560     2.2360 ca         1 IMV      -0.083000
     15 C15          2.8610    -0.2850     1.7310 ca         1 IMV      -0.129000
     16 C16          2.8410     0.1160     0.3860 ca         1 IMV      -0.014000
     17 C17         -0.4390    -1.2720     0.1900 ca         1 IMV      -0.131000
     18 C18         -1.5050    -2.1920     0.1330 ca         1 IMV      -0.128000
     19 C19         -2.8010    -1.6870     0.0100 ca         1 IMV       0.024100
     20 O20         -3.9370    -2.4290    -0.0300 os         1 IMV      -0.370100
     21 C21         -4.9740    -1.4120    -0.2570 c5         1 IMV       0.369600
     22 O22         -4.3800    -0.0760    -0.1150 os         1 IMV      -0.310100
     23 C23         -3.0480    -0.3430    -0.0450 ca         1 IMV       0.072100
     24 H6           0.2420     2.0330    -0.3440 h1         1 IMV       0.095700
     25 H6A          0.6750     1.3920     1.2340 h1         1 IMV       0.095700
     26 H10          3.5570    -0.5990    -2.5750 hc         1 IMV       0.078700
     27 H10A         4.1630     1.0350    -2.3190 hc         1 IMV       0.078700
     28 H12          5.9300    -0.8930    -0.6430 ha         1 IMV       0.104000
     29 H13          6.0680    -1.5040     1.7840 ha         1 IMV       0.103000
     30 H14          4.1010    -1.1570     3.2800 ha         1 IMV       0.108000
     31 H15          1.9920    -0.1590     2.3730 ha         1 IMV       0.145000
     32 H17          0.5730    -1.6560     0.2890 ha         1 IMV       0.099000
     33 H18         -1.3260    -3.2630     0.1880 ha         1 IMV       0.108000
     34 H21         -5.3600    -1.5200    -1.2770 h2         1 IMV       0.042700
     35 H21A        -5.7850    -1.5370     0.4700 h2         1 IMV       0.042700
@<TRIPOS>BOND
     1     1     2 1   
     2     2     3 1   
     3     2     4 1   
     4     4     5 ar  
     5     4    23 ar  
     6     5     6 1   
     7     5    17 ar  
     8     6     7 1   
     9     6    24 1   
    10     6    25 1   
    11     7     8 1   
    12     7    16 1   
    13     8     9 2   
    14     8    10 1   
    15    10    11 1   
    16    10    26 1   
    17    10    27 1   
    18    11    12 ar  
    19    11    16 ar  
    20    12    13 ar  
    21    12    28 1   
    22    13    14 ar  
    23    13    29 1   
    24    14    15 ar  
    25    14    30 1   
    26    15    16 ar  
    27    15    31 1   
    28    17    18 ar  
    29    17    32 1   
    30    18    19 ar  
    31    18    33 1   
    32    19    20 1   
    33    19    23 ar  
    34    20    21 1   
    35    21    22 1   
    36    21    34 1   
    37    21    35 1   
    38    22    23 1   
@<TRIPOS>SUBSTRUCTURE
     1 IMV         1 TEMP              0 ****  ****    0 ROOT
