@<TRIPOS>MOLECULE
IMW
   24    24     1     0     0
SMALL
abcg2


@<TRIPOS>ATOM
      1 CAA          2.0240    -0.5560     0.0230 cc         1 IMW      -0.122400
      2 CAB          1.0460    -1.4670     0.0520 cd         1 IMW      -0.257200
      3 CAC         -0.3860    -1.1160     0.0360 c          1 IMW       0.554500
      4 CAD         -0.7650     0.3260    -0.0130 cc         1 IMW      -0.114400
      5 CAE          0.2190     1.2330    -0.0420 cd         1 IMW      -0.258200
      6 CAF          1.6490     0.8820    -0.0290 c          1 IMW       0.550500
      7 CAG          3.4730    -0.8980     0.0400 c3         1 IMW      -0.054900
      8 CAH         -2.2120     0.7400    -0.0290 c3         1 IMW      -0.018500
      9 CAI         -2.9460     0.2580    -1.2820 c3         1 IMW      -0.086100
     10 OAJ          2.5010     1.7470    -0.0580 o          1 IMW      -0.494100
     11 OAK         -1.2220    -1.9960     0.0610 o          1 IMW      -0.493100
     12 CAL         -2.9500     0.3450     1.2520 c3         1 IMW      -0.086100
     13 HAB          1.2680    -2.5270     0.0890 ha         1 IMW       0.205000
     14 HAE         -0.0040     2.2930    -0.0780 ha         1 IMW       0.204000
     15 HAG          3.9750    -0.5230    -0.8530 hc         1 IMW       0.056700
     16 HAGA         3.9720    -0.4480     0.8990 hc         1 IMW       0.056700
     17 HAGB         3.6160    -1.9760     0.0860 hc         1 IMW       0.056700
     18 HAH         -2.2040     1.8340    -0.0660 hc         1 IMW       0.046700
     19 HAI         -3.9430     0.6980    -1.3120 hc         1 IMW       0.042200
     20 HAIA        -2.4230     0.5640    -2.1890 hc         1 IMW       0.042200
     21 HAIB        -3.0590    -0.8240    -1.3010 hc         1 IMW       0.042200
     22 HAL         -2.4310     0.7140     2.1380 hc         1 IMW       0.042200
     23 HALA        -3.9470     0.7850     1.2470 hc         1 IMW       0.042200
     24 HALB        -3.0620    -0.7330     1.3460 hc         1 IMW       0.042200
@<TRIPOS>BOND
     1     1     2 2   
     2     1     6 1   
     3     1     7 1   
     4     2     3 1   
     5     2    13 1   
     6     3     4 1   
     7     3    11 2   
     8     4     5 2   
     9     4     8 1   
    10     5     6 1   
    11     5    14 1   
    12     6    10 2   
    13     7    15 1   
    14     7    16 1   
    15     7    17 1   
    16     8     9 1   
    17     8    12 1   
    18     8    18 1   
    19     9    19 1   
    20     9    20 1   
    21     9    21 1   
    22    12    22 1   
    23    12    23 1   
    24    12    24 1   
@<TRIPOS>SUBSTRUCTURE
     1 IMW         1 TEMP              0 ****  ****    0 ROOT
