@<TRIPOS>MOLECULE
IMW
   24    24     1     0     0
SMALL
No Charge or Current Charge


@<TRIPOS>ATOM
      1 CAA          2.0330    -0.5400     0.0230 cc         1 IMW      -0.122400
      2 CAB          1.0200    -1.4830     0.0540 cd         1 IMW      -0.257200
      3 CAC         -0.4190    -1.1430     0.0390 c          1 IMW       0.554500
      4 CAD         -0.7570     0.3160    -0.0120 cc         1 IMW      -0.114400
      5 CAE          0.2660     1.2540    -0.0430 cd         1 IMW      -0.258200
      6 CAF          1.7020     0.9110    -0.0280 c          1 IMW       0.550500
      7 CAG          3.5040    -0.8880     0.0380 c3         1 IMW      -0.054900
      8 CAH         -2.2250     0.7220    -0.0290 c3         1 IMW      -0.018500
      9 CAI         -2.9720     0.2560    -1.3010 c3         1 IMW      -0.086100
     10 OAJ          2.5530     1.7900    -0.0570 o          1 IMW      -0.494100
     11 OAK         -1.2530    -2.0380     0.0690 o          1 IMW      -0.493100
     12 CAL         -2.9760     0.3450     1.2690 c3         1 IMW      -0.086100
     13 HAB          1.2270    -2.5460     0.0910 ha         1 IMW       0.205000
     14 HAE          0.0660     2.3190    -0.0800 ha         1 IMW       0.204000
     15 HAG          4.0060    -0.5130    -0.8620 hc         1 IMW       0.056700
     16 HAGA         4.0030    -0.4520     0.9120 hc         1 IMW       0.056700
     17 HAGB         3.6580    -1.9730     0.0760 hc         1 IMW       0.056700
     18 HAH         -2.2530     1.8180    -0.0670 hc         1 IMW       0.046700
     19 HAI         -3.9710     0.7060    -1.3450 hc         1 IMW       0.042200
     20 HAIA        -2.4240     0.5600    -2.2000 hc         1 IMW       0.042200
     21 HAIB        -3.0930    -0.8330    -1.3240 hc         1 IMW       0.042200
     22 HAL         -2.4320     0.7110     2.1480 hc         1 IMW       0.042200
     23 HALA        -3.9760     0.7970     1.2790 hc         1 IMW       0.042200
     24 HALB        -3.0980    -0.7390     1.3680 hc         1 IMW       0.042200
@<TRIPOS>BOND
     1     1     2 2   
     2     1     6 1   
     3     1     7 1   
     4     2     3 1   
     5     2    13 1   
     6     3     4 1   
     7     3    11 2   
     8     4     5 2   
     9     4     8 1   
    10     5     6 1   
    11     5    14 1   
    12     6    10 2   
    13     7    15 1   
    14     7    16 1   
    15     7    17 1   
    16     8     9 1   
    17     8    12 1   
    18     8    18 1   
    19     9    19 1   
    20     9    20 1   
    21     9    21 1   
    22    12    22 1   
    23    12    23 1   
    24    12    24 1   
@<TRIPOS>SUBSTRUCTURE
     1 IMW         1 TEMP              0 ****  ****    0 ROOT
