@<TRIPOS>MOLECULE
IMX
   42    45     1     0     0
SMALL
No Charge or Current Charge


@<TRIPOS>ATOM
      1 C1           1.8070    -1.0530     1.1300 c5         1 IMX       0.097700
      2 C2          -4.1890    -0.2740     0.2640 ca         1 IMX      -0.092800
      3 C3          -3.5080     0.4620    -0.6630 ca         1 IMX      -0.057200
      4 C4          -5.5880    -0.2910     0.3300 ca         1 IMX      -0.098000
      5 C5          -4.1770     1.2500    -1.6100 ca         1 IMX      -0.098000
      6 C6          -6.2870     0.4930    -0.6110 ca         1 IMX       0.127000
      7 C7          -5.5900     1.2590    -1.5760 ca         1 IMX      -0.133000
      8 N8          -2.1440     0.2810    -0.4830 na         1 IMX      -0.206700
      9 C9          -1.9080    -0.6060     0.6000 cc         1 IMX      -0.120300
     10 C10         -3.1830    -0.9380     1.0490 cd         1 IMX      -0.184200
     11 C12         -0.6500    -1.1280     1.2040 c          1 IMX       0.620300
     12 O13         -0.6270    -1.9010     2.1550 o          1 IMX      -0.600100
     13 N14          0.4930    -0.6570     0.5880 ns         1 IMX      -0.484900
     14 C15          2.1870     0.1110     2.1280 c5         1 IMX      -0.050100
     15 C16          2.7160     1.1400     1.1600 ca         1 IMX      -0.106300
     16 C17          3.0460     0.5830    -0.0640 ca         1 IMX      -0.062300
     17 C18          2.7960    -0.9120    -0.1030 c5         1 IMX      -0.011400
     18 C19          2.8720     2.5140     1.3970 ca         1 IMX      -0.112000
     19 C20          3.3690     3.3310     0.3640 ca         1 IMX      -0.131000
     20 C21          3.7000     2.7690    -0.8860 ca         1 IMX      -0.124000
     21 C22          3.5380     1.3860    -1.1070 ca         1 IMX      -0.068000
     22 C23          4.0930    -1.7550     0.0670 c3         1 IMX      -0.200400
     23 C24          4.8960    -1.8100    -1.2430 c          1 IMX       0.719000
     24 O26          5.7880    -0.9940    -1.4150 o          1 IMX      -0.736000
     25 O25          4.5870    -2.6560    -2.0690 o          1 IMX      -0.736000
     26 H1           1.8130    -2.0540     1.5860 h1         1 IMX       0.083700
     27 H5          -3.6300     1.8340    -2.3460 ha         1 IMX       0.120000
     28 H7          -6.1470     1.8570    -2.2940 ha         1 IMX       0.124000
     29 HN8         -1.4310     0.7250    -1.0520 hn         1 IMX       0.360000
     30 H10         -3.3840    -1.6090     1.8820 ha         1 IMX       0.220000
     31 HN14         0.3820    -0.0030    -0.1730 hn         1 IMX       0.311500
     32 H15          1.3370     0.4660     2.7240 hc         1 IMX       0.056200
     33 H15A         2.9670    -0.2080     2.8280 hc         1 IMX       0.056200
     34 H18          2.3180    -1.2350    -1.0360 hc         1 IMX       0.082700
     35 H19          2.6100     2.9420     2.3620 ha         1 IMX       0.097000
     36 H20          3.4960     4.3990     0.5300 ha         1 IMX       0.093000
     37 H21          4.0810     3.4030    -1.6830 ha         1 IMX       0.100000
     38 H22          3.7910     0.9480    -2.0690 ha         1 IMX       0.152000
     39 H23          4.6850    -1.2910     0.8650 hc         1 IMX       0.028700
     40 H23A         3.7520    -2.7670     0.3150 hc         1 IMX       0.028700
     41 F11         -7.6380     0.5120    -0.5920 f          1 IMX      -0.193000
     42 H4          -6.1150    -0.8820     1.0740 ha         1 IMX       0.130000
@<TRIPOS>BOND
     1     1    13 1   
     2     1    14 1   
     3     1    17 1   
     4     1    26 1   
     5     2     3 ar  
     6     2     4 ar  
     7     2    10 1   
     8     3     5 ar  
     9     3     8 1   
    10     4     6 ar  
    11     4    42 1   
    12     5     7 ar  
    13     5    27 1   
    14     6     7 ar  
    15     6    41 1   
    16     7    28 1   
    17     8     9 1   
    18     8    29 1   
    19     9    10 2   
    20     9    11 1   
    21    10    30 1   
    22    11    12 2   
    23    11    13 1   
    24    13    31 1   
    25    14    15 1   
    26    14    32 1   
    27    14    33 1   
    28    15    16 ar  
    29    15    18 ar  
    30    16    17 1   
    31    16    21 ar  
    32    17    22 1   
    33    17    34 1   
    34    18    19 ar  
    35    18    35 1   
    36    19    20 ar  
    37    19    36 1   
    38    20    21 ar  
    39    20    37 1   
    40    21    38 1   
    41    22    23 1   
    42    22    39 1   
    43    22    40 1   
    44    23    24 1   
    45    23    25 1   
@<TRIPOS>SUBSTRUCTURE
     1 IMX         1 TEMP              0 ****  ****    0 ROOT
