@<TRIPOS>MOLECULE
IMX
   42    45     1     0     0
SMALL
abcg2


@<TRIPOS>ATOM
      1 C1           1.7160    -0.9420     0.9590 c5         1 IMX       0.097700
      2 C2          -4.2050    -0.1420     0.4440 ca         1 IMX      -0.092800
      3 C3          -3.5590     0.0980    -0.7880 ca         1 IMX      -0.057200
      4 C4          -5.5810     0.1030     0.5660 ca         1 IMX      -0.098000
      5 C5          -4.2500     0.5600    -1.9080 ca         1 IMX      -0.098000
      6 C6          -6.2360     0.5610    -0.5480 ca         1 IMX       0.127000
      7 C7          -5.6030     0.7920    -1.7750 ca         1 IMX      -0.133000
      8 N8          -2.2390    -0.2050    -0.6290 na         1 IMX      -0.206700
      9 C9          -2.0310    -0.6500     0.6510 cc         1 IMX      -0.120300
     10 C10         -3.2140    -0.6220     1.3420 cd         1 IMX      -0.184200
     11 C12         -0.7200    -1.0570     1.1960 c          1 IMX       0.620300
     12 O13         -0.6590    -1.7340     2.2150 o          1 IMX      -0.600100
     13 N14          0.3640    -0.6490     0.5140 ns         1 IMX      -0.484900
     14 C15          2.1840     0.0670     2.0250 c5         1 IMX      -0.050100
     15 C16          2.7810     1.1690     1.1950 ca         1 IMX      -0.106300
     16 C17          3.0560     0.7110    -0.0920 ca         1 IMX      -0.062300
     17 C18          2.6940    -0.7490    -0.2190 c5         1 IMX      -0.011400
     18 C19          3.0640     2.4770     1.5550 ca         1 IMX      -0.112000
     19 C20          3.6250     3.3310     0.6090 ca         1 IMX      -0.131000
     20 C21          3.8980     2.8750    -0.6760 ca         1 IMX      -0.124000
     21 C22          3.6190     1.5590    -1.0340 ca         1 IMX      -0.068000
     22 C23          3.9240    -1.6460    -0.0830 c3         1 IMX      -0.200400
     23 C24          4.8950    -1.5780    -1.2760 c          1 IMX       0.719000
     24 O26          6.1010    -1.7740    -1.0250 o          1 IMX      -0.736000
     25 O25          4.3960    -1.3770    -2.4020 o          1 IMX      -0.736000
     26 H1           1.7310    -1.9660     1.3310 h1         1 IMX       0.083700
     27 H5          -3.7500     0.7380    -2.8500 ha         1 IMX       0.120000
     28 H7          -6.1810     1.1530    -2.6150 ha         1 IMX       0.124000
     29 HN8         -1.5750    -0.2490    -1.3850 hn         1 IMX       0.360000
     30 H10         -3.3480    -0.8910     2.3770 ha         1 IMX       0.220000
     31 HN14         0.2620     0.0690    -0.1870 hn         1 IMX       0.311500
     32 H15          1.3730     0.3960     2.6750 hc         1 IMX       0.056200
     33 H15A         2.9420    -0.3870     2.6710 hc         1 IMX       0.056200
     34 H18          2.2110    -0.9790    -1.1710 hc         1 IMX       0.082700
     35 H19          2.8480     2.8370     2.5540 ha         1 IMX       0.097000
     36 H20          3.8450     4.3580     0.8730 ha         1 IMX       0.093000
     37 H21          4.3290     3.5500    -1.4050 ha         1 IMX       0.100000
     38 H22          3.8380     1.2020    -2.0310 ha         1 IMX       0.152000
     39 H23          4.4580    -1.4220     0.8450 hc         1 IMX       0.028700
     40 H23A         3.5860    -2.6860     0.0060 hc         1 IMX       0.028700
     41 F11         -7.5590     0.8040    -0.4730 f          1 IMX      -0.193000
     42 H4          -6.1080    -0.0660     1.4960 ha         1 IMX       0.130000
@<TRIPOS>BOND
     1     1    13 1   
     2     1    14 1   
     3     1    17 1   
     4     1    26 1   
     5     2     3 ar  
     6     2     4 ar  
     7     2    10 1   
     8     3     5 ar  
     9     3     8 1   
    10     4     6 ar  
    11     4    42 1   
    12     5     7 ar  
    13     5    27 1   
    14     6     7 ar  
    15     6    41 1   
    16     7    28 1   
    17     8     9 1   
    18     8    29 1   
    19     9    10 2   
    20     9    11 1   
    21    10    30 1   
    22    11    12 2   
    23    11    13 1   
    24    13    31 1   
    25    14    15 1   
    26    14    32 1   
    27    14    33 1   
    28    15    16 ar  
    29    15    18 ar  
    30    16    17 1   
    31    16    21 ar  
    32    17    22 1   
    33    17    34 1   
    34    18    19 ar  
    35    18    35 1   
    36    19    20 ar  
    37    19    36 1   
    38    20    21 ar  
    39    20    37 1   
    40    21    38 1   
    41    22    23 1   
    42    22    39 1   
    43    22    40 1   
    44    23    24 1   
    45    23    25 1   
@<TRIPOS>SUBSTRUCTURE
     1 IMX         1 TEMP              0 ****  ****    0 ROOT
