@<TRIPOS>MOLECULE
IMY
   71    75     1     0     0
SMALL
No Charge or Current Charge


@<TRIPOS>ATOM
      1 C1           4.0600    -0.6690     2.6180 ce         1 IMY       0.551500
      2 N2           3.7640    -1.5940     1.6070 n          1 IMY      -0.391300
      3 C3           4.5870    -1.4070     0.4240 c5         1 IMY       0.144000
      4 C4           5.1720     0.0200     0.7970 c5         1 IMY       0.153800
      5 N5           4.9070     0.2410     2.2630 n2         1 IMY      -0.626900
      6 C13          5.6730    -2.5030     0.4410 ca         1 IMY      -0.080300
      7 C14          5.9080    -3.2460    -0.7350 ca         1 IMY      -0.081000
      8 C15          6.8910    -4.2500    -0.7680 ca         1 IMY      -0.107000
      9 C16          7.6510    -4.5260     0.3780 ca         1 IMY       0.125000
     10 C17          7.4290    -3.8010     1.5570 ca         1 IMY      -0.107000
     11 C18          6.4440    -2.7990     1.5910 ca         1 IMY      -0.081000
     12 Cl16         8.8820    -5.7820     0.3370 cl         1 IMY      -0.211000
     13 C20          7.7080     0.1810     1.2520 ca         1 IMY      -0.084000
     14 C21          9.0370     0.2420     0.7970 ca         1 IMY      -0.106000
     15 C22          9.3090     0.2410    -0.5790 ca         1 IMY       0.124000
     16 C23          8.2550     0.1860    -1.5020 ca         1 IMY      -0.106000
     17 C24          6.9260     0.1250    -1.0480 ca         1 IMY      -0.084000
     18 C19          6.6350     0.1130     0.3330 ca         1 IMY      -0.064300
     19 Cl22        10.9720     0.3130    -1.1460 cl         1 IMY      -0.209000
     20 C28          3.3330    -2.1620     6.0700 ca         1 IMY      -0.307000
     21 C29          3.6830    -2.0750     4.7050 ca         1 IMY       0.239100
     22 C34          3.6900    -0.8180     4.0590 ca         1 IMY      -0.225900
     23 C25          3.4300     0.3440     4.8140 ca         1 IMY      -0.001000
     24 C26          3.0930     0.2490     6.1710 ca         1 IMY      -0.198000
     25 C27          3.0330    -0.9980     6.8010 ca         1 IMY       0.202100
     26 C31          4.2710    -4.4950     4.5310 c3         1 IMY       0.182300
     27 C32          4.2550    -5.4810     3.3500 c3         1 IMY      -0.111100
     28 C33          5.6350    -4.4720     5.2540 c3         1 IMY      -0.111100
     29 O2           2.6900    -1.0260     8.1370 os         1 IMY      -0.336100
     30 C30          2.6030    -2.2520     8.8840 c3         1 IMY       0.147900
     31 C2           2.6190    -2.4080     1.5470 c          1 IMY       0.688100
     32 O1           2.5900    -3.3510     0.7680 o          1 IMY      -0.603100
     33 N1           1.4910    -2.1400     2.3550 n          1 IMY      -0.414800
     34 C5           0.4630    -3.1880     2.6110 c6         1 IMY       0.104500
     35 C6          -0.8660    -2.9030     1.8580 c6         1 IMY       0.127300
     36 N3          -1.3880    -1.5450     2.1630 n7         1 IMY      -0.859400
     37 C7          -0.3740    -0.4920     1.8890 c6         1 IMY       0.127300
     38 C8           0.9760    -0.7610     2.6180 c6         1 IMY       0.104500
     39 H3           4.0080    -1.3930    -0.5100 h1         1 IMY       0.077700
     40 H4           4.5970     0.7800     0.2490 h1         1 IMY       0.068700
     41 H14          5.3270    -3.0420    -1.6320 ha         1 IMY       0.123000
     42 H15          7.0630    -4.8140    -1.6810 ha         1 IMY       0.126500
     43 H17          8.0180    -4.0160     2.4440 ha         1 IMY       0.126500
     44 H18          6.2910    -2.2500     2.5160 ha         1 IMY       0.123000
     45 H20          7.5180     0.1760     2.3220 ha         1 IMY       0.122000
     46 H21          9.8550     0.2870     1.5120 ha         1 IMY       0.128500
     47 H23          8.4670     0.1880    -2.5680 ha         1 IMY       0.128500
     48 H24          6.1170     0.0780    -1.7740 ha         1 IMY       0.122000
     49 H28          3.3010    -3.1260     6.5600 ha         1 IMY       0.124000
     50 H25          3.4690     1.3240     4.3420 ha         1 IMY       0.132000
     51 H26          2.8760     1.1490     6.7390 ha         1 IMY       0.135000
     52 H31          3.4740    -4.7880     5.2260 h1         1 IMY       0.039700
     53 H321         4.4470    -6.5030     3.6990 hc         1 IMY       0.050867
     54 H322         3.2770    -5.4690     2.8550 hc         1 IMY       0.050867
     55 H323         5.0200    -5.2210     2.6090 hc         1 IMY       0.050867
     56 H331         5.8830    -5.4700     5.6330 hc         1 IMY       0.050867
     57 H332         5.6220    -3.7830     6.1070 hc         1 IMY       0.050867
     58 H333         6.4320    -4.1570     4.5710 hc         1 IMY       0.050867
     59 H30          3.5700    -2.7700     8.8980 h1         1 IMY       0.043367
     60 H301         1.8500    -2.9210     8.4490 h1         1 IMY       0.043367
     61 H302         2.3140    -2.0440     9.9220 h1         1 IMY       0.043367
     62 H51          0.2610    -3.2220     3.6910 h1         1 IMY       0.062700
     63 H52          0.8400    -4.1810     2.3290 h1         1 IMY       0.062700
     64 H61         -0.6900    -2.9930     0.7760 h1         1 IMY       0.040700
     65 H62         -1.6160    -3.6590     2.1360 h1         1 IMY       0.040700
     66 HN3         -2.2260    -1.3660     1.5920 hn         1 IMY       0.414000
     67 H71         -0.7670     0.4890     2.1940 h1         1 IMY       0.040700
     68 H72         -0.1860    -0.4480     0.8050 h1         1 IMY       0.040700
     69 H81          1.6870     0.0030     2.2820 h1         1 IMY       0.062700
     70 H82          0.8340    -0.6330     3.7010 h1         1 IMY       0.062700
     71 O3           4.0300    -3.1930     3.9720 os         1 IMY      -0.354100
@<TRIPOS>BOND
     1     1     2 1   
     2     1     5 2   
     3     1    22 1   
     4     2     3 1   
     5     2    31 1   
     6     3     4 1   
     7     3     6 1   
     8     3    39 1   
     9     4     5 1   
    10     4    18 1   
    11     4    40 1   
    12     6     7 ar  
    13     6    11 ar  
    14     7     8 ar  
    15     7    41 1   
    16     8     9 ar  
    17     8    42 1   
    18     9    10 ar  
    19     9    12 1   
    20    10    11 ar  
    21    10    43 1   
    22    11    44 1   
    23    13    14 ar  
    24    13    18 ar  
    25    13    45 1   
    26    14    15 ar  
    27    14    46 1   
    28    15    16 ar  
    29    15    19 1   
    30    16    17 ar  
    31    16    47 1   
    32    17    18 ar  
    33    17    48 1   
    34    20    21 ar  
    35    20    25 ar  
    36    20    49 1   
    37    21    22 ar  
    38    21    71 1   
    39    22    23 ar  
    40    23    24 ar  
    41    23    50 1   
    42    24    25 ar  
    43    24    51 1   
    44    25    29 1   
    45    26    27 1   
    46    26    28 1   
    47    26    52 1   
    48    26    71 1   
    49    27    53 1   
    50    27    54 1   
    51    27    55 1   
    52    28    56 1   
    53    28    57 1   
    54    28    58 1   
    55    29    30 1   
    56    30    59 1   
    57    30    60 1   
    58    30    61 1   
    59    31    32 2   
    60    31    33 1   
    61    33    34 1   
    62    33    38 1   
    63    34    35 1   
    64    34    62 1   
    65    34    63 1   
    66    35    36 1   
    67    35    64 1   
    68    35    65 1   
    69    36    37 1   
    70    36    66 1   
    71    37    38 1   
    72    37    67 1   
    73    37    68 1   
    74    38    69 1   
    75    38    70 1   
@<TRIPOS>SUBSTRUCTURE
     1 IMY         1 TEMP              0 ****  ****    0 ROOT
