@<TRIPOS>MOLECULE
IMY
   71    75     1     0     0
SMALL
abcg2


@<TRIPOS>ATOM
      1 C1           4.2780    -0.8070     2.6800 ce         1 IMY       0.551500
      2 N2           3.7770    -1.6190     1.6680 n          1 IMY      -0.391300
      3 C3           4.6300    -1.4610     0.4990 c5         1 IMY       0.144000
      4 C4           5.2480    -0.0650     0.8400 c5         1 IMY       0.153800
      5 N5           5.1510     0.0370     2.2870 n2         1 IMY      -0.626900
      6 C13          5.6600    -2.5460     0.3260 ca         1 IMY      -0.080300
      7 C14          6.1860    -2.7670    -0.9420 ca         1 IMY      -0.081000
      8 C15          7.2160    -3.6690    -1.1480 ca         1 IMY      -0.107000
      9 C16          7.7240    -4.3650    -0.0630 ca         1 IMY       0.125000
     10 C17          7.2090    -4.1760     1.2090 ca         1 IMY      -0.107000
     11 C18          6.1790    -3.2650     1.3950 ca         1 IMY      -0.081000
     12 CL16         9.0180    -5.4960    -0.3020 cl         1 IMY      -0.211000
     13 C20          7.7530    -0.2590     1.0480 ca         1 IMY      -0.084000
     14 C21          9.0280    -0.1530     0.5170 ca         1 IMY      -0.106000
     15 C22          9.1860     0.3530    -0.7640 ca         1 IMY       0.124000
     16 C23          8.0950     0.7650    -1.5110 ca         1 IMY      -0.106000
     17 C24          6.8260     0.6520    -0.9620 ca         1 IMY      -0.084000
     18 C19          6.6380     0.1320     0.3140 ca         1 IMY      -0.064300
     19 CL22        10.7800     0.4810    -1.4390 cl         1 IMY      -0.209000
     20 C28          3.2470    -2.0560     6.1110 ca         1 IMY      -0.307000
     21 C29          3.6930    -2.0780     4.7900 ca         1 IMY       0.239100
     22 C34          3.8370    -0.8780     4.0790 ca         1 IMY      -0.225900
     23 C25          3.5710     0.3210     4.7390 ca         1 IMY      -0.001000
     24 C26          3.1330     0.3580     6.0450 ca         1 IMY      -0.198000
     25 C27          2.9580    -0.8440     6.7330 ca         1 IMY       0.202100
     26 C31          4.0450    -4.4770     4.7900 c3         1 IMY       0.182300
     27 C32          3.9810    -5.5240     3.6970 c3         1 IMY      -0.111100
     28 C33          5.3000    -4.6180     5.6330 c3         1 IMY      -0.111100
     29 O2           2.5170    -0.7470     7.9950 os         1 IMY      -0.336100
     30 C30          2.3230    -1.9270     8.7520 c3         1 IMY       0.147900
     31 C2           2.7350    -2.5380     1.6810 c          1 IMY       0.688100
     32 O1           2.8060    -3.5460     1.0000 o          1 IMY      -0.603100
     33 N1           1.6780    -2.2210     2.4680 n          1 IMY      -0.414800
     34 C5           0.7030    -3.2470     2.7970 c6         1 IMY       0.104500
     35 C6          -0.5780    -3.0640     2.0030 c6         1 IMY       0.127300
     36 N3          -1.0980    -1.7300     2.2450 n7         1 IMY      -0.859400
     37 C7          -0.1410    -0.7210     1.8330 c6         1 IMY       0.127300
     38 C8           1.1490    -0.8720     2.6260 c6         1 IMY       0.104500
     39 H3           4.0220    -1.3930    -0.4040 h1         1 IMY       0.077700
     40 H4           4.6010     0.7030     0.3970 h1         1 IMY       0.068700
     41 H14          5.7920    -2.2220    -1.7920 ha         1 IMY       0.123000
     42 H15          7.6150    -3.8270    -2.1410 ha         1 IMY       0.126500
     43 H17          7.6050    -4.7280     2.0500 ha         1 IMY       0.126500
     44 H18          5.7840    -3.1320     2.3920 ha         1 IMY       0.123000
     45 H20          7.6290    -0.6540     2.0480 ha         1 IMY       0.122000
     46 H21          9.8880    -0.4630     1.0950 ha         1 IMY       0.128500
     47 H23          8.2280     1.1710    -2.5050 ha         1 IMY       0.128500
     48 H24          5.9710     0.9720    -1.5450 ha         1 IMY       0.122000
     49 H28          3.1290    -2.9820     6.6540 ha         1 IMY       0.124000
     50 H25          3.6940     1.2480     4.1950 ha         1 IMY       0.132000
     51 H26          2.9170     1.3000     6.5310 ha         1 IMY       0.135000
     52 H31          3.1560    -4.5810     5.4210 h1         1 IMY       0.039700
     53 H321         3.9950    -6.5160     4.1470 hc         1 IMY       0.050867
     54 H322         3.0720    -5.4330     3.1050 hc         1 IMY       0.050867
     55 H323         4.8350    -5.4430     3.0230 hc         1 IMY       0.050867
     56 H331         5.3000    -5.5870     6.1320 hc         1 IMY       0.050867
     57 H332         5.3810    -3.8520     6.4060 hc         1 IMY       0.050867
     58 H333         6.1940    -4.5650     5.0080 hc         1 IMY       0.050867
     59 H30          3.2560    -2.4780     8.8920 h1         1 IMY       0.043367
     60 H301         1.5840    -2.5890     8.2930 h1         1 IMY       0.043367
     61 H302         1.9540    -1.6120     9.7240 h1         1 IMY       0.043367
     62 H51          0.4840    -3.1670     3.8660 h1         1 IMY       0.062700
     63 H52          1.1250    -4.2330     2.6170 h1         1 IMY       0.062700
     64 H61         -0.3650    -3.2520     0.9390 h1         1 IMY       0.040700
     65 H62         -1.3130    -3.8040     2.3260 h1         1 IMY       0.040700
     66 HN3         -1.9640    -1.6030     1.7380 hn         1 IMY       0.414000
     67 H71         -0.5540     0.2710     2.0260 h1         1 IMY       0.040700
     68 H72          0.1010    -0.7740     0.7600 h1         1 IMY       0.040700
     69 H81          1.8630    -0.1320     2.2770 h1         1 IMY       0.062700
     70 H82          0.9610    -0.6830     3.6860 h1         1 IMY       0.062700
     71 O3           4.0150    -3.2010     4.1370 os         1 IMY      -0.354100
@<TRIPOS>BOND
     1     1     2 1   
     2     1     5 2   
     3     1    22 1   
     4     2     3 1   
     5     2    31 1   
     6     3     4 1   
     7     3     6 1   
     8     3    39 1   
     9     4     5 1   
    10     4    18 1   
    11     4    40 1   
    12     6     7 ar  
    13     6    11 ar  
    14     7     8 ar  
    15     7    41 1   
    16     8     9 ar  
    17     8    42 1   
    18     9    10 ar  
    19     9    12 1   
    20    10    11 ar  
    21    10    43 1   
    22    11    44 1   
    23    13    14 ar  
    24    13    18 ar  
    25    13    45 1   
    26    14    15 ar  
    27    14    46 1   
    28    15    16 ar  
    29    15    19 1   
    30    16    17 ar  
    31    16    47 1   
    32    17    18 ar  
    33    17    48 1   
    34    20    21 ar  
    35    20    25 ar  
    36    20    49 1   
    37    21    22 ar  
    38    21    71 1   
    39    22    23 ar  
    40    23    24 ar  
    41    23    50 1   
    42    24    25 ar  
    43    24    51 1   
    44    25    29 1   
    45    26    27 1   
    46    26    28 1   
    47    26    52 1   
    48    26    71 1   
    49    27    53 1   
    50    27    54 1   
    51    27    55 1   
    52    28    56 1   
    53    28    57 1   
    54    28    58 1   
    55    29    30 1   
    56    30    59 1   
    57    30    60 1   
    58    30    61 1   
    59    31    32 2   
    60    31    33 1   
    61    33    34 1   
    62    33    38 1   
    63    34    35 1   
    64    34    62 1   
    65    34    63 1   
    66    35    36 1   
    67    35    64 1   
    68    35    65 1   
    69    36    37 1   
    70    36    66 1   
    71    37    38 1   
    72    37    67 1   
    73    37    68 1   
    74    38    69 1   
    75    38    70 1   
@<TRIPOS>SUBSTRUCTURE
     1 IMY         1 TEMP              0 ****  ****    0 ROOT
