@<TRIPOS>MOLECULE
IMZ
   75    79     1     0     0
SMALL
abcg2


@<TRIPOS>ATOM
      1 C4          -0.3910    -0.9520    -2.3640 c5         1 IMZ       0.154800
      2 C40         -1.8230    -1.2420    -1.9960 ca         1 IMZ      -0.060300
      3 C45         -2.8440    -0.4730    -2.5440 ca         1 IMZ      -0.094500
      4 C44         -4.1660    -0.6720    -2.1810 ca         1 IMZ      -0.089000
      5 C41         -2.1540    -2.2380    -1.0860 ca         1 IMZ      -0.094500
      6 C42         -3.4730    -2.4570    -0.7130 ca         1 IMZ      -0.089000
      7 C43         -4.4690    -1.6650    -1.2610 ca         1 IMZ      -0.013900
      8 BR43        -6.2680    -1.9460    -0.7530 br         1 IMZ      -0.105100
      9 N3           0.4930    -2.0480    -2.0210 n2         1 IMZ      -0.609900
     10 C2           1.3980    -1.6160    -1.2420 ce         1 IMZ       0.548500
     11 C20          2.4910    -2.4470    -0.7100 ca         1 IMZ      -0.197900
     12 C26          2.2330    -3.4280     0.2580 ca         1 IMZ       0.238100
     13 O26          0.9600    -3.5420     0.6570 os         1 IMZ      -0.337100
     14 C27          0.6310    -4.4410     1.7080 c3         1 IMZ       0.164600
     15 C28         -0.8580    -4.3560     1.9450 c3         1 IMZ      -0.096100
     16 C25          3.2750    -4.1970     0.7530 ca         1 IMZ      -0.247000
     17 C21          3.7880    -2.2540    -1.1440 ca         1 IMZ      -0.009000
     18 C22          4.8450    -3.0210    -0.6660 ca         1 IMZ      -0.246000
     19 C23          4.5800    -3.9960     0.2880 ca         1 IMZ       0.196100
     20 O23          5.5120    -4.7980     0.8290 os         1 IMZ      -0.341100
     21 C24          6.8550    -4.6580     0.4060 c3         1 IMZ       0.148900
     22 N1           1.3740    -0.2550    -0.9860 n          1 IMZ      -0.389300
     23 C10          1.9480     0.3090     0.1650 c          1 IMZ       0.673100
     24 O10          2.0860    -0.3380     1.1870 o          1 IMZ      -0.593100
     25 N10          2.2770     1.6110     0.0400 n          1 IMZ      -0.410800
     26 C15          2.6100     2.3980     1.2120 c6         1 IMZ       0.105000
     27 C14          4.0740     2.7930     1.1980 c6         1 IMZ       0.140300
     28 N13          4.3860     3.5170    -0.0200 n3         1 IMZ      -0.702600
     29 C13          5.7540     4.0010    -0.0130 c3         1 IMZ       0.167800
     30 C16          6.0410     5.0770    -1.0390 c3         1 IMZ       0.166600
     31 O17          5.2270     6.1980    -0.7840 oh         1 IMZ      -0.642000
     32 C11          2.6300     2.2720    -1.2030 c6         1 IMZ       0.105000
     33 C12          4.0930     2.6920    -1.1740 c6         1 IMZ       0.140300
     34 C5           0.2170     0.3320    -1.6710 c5         1 IMZ       0.128000
     35 C50         -0.6980     1.0730    -0.7380 ca         1 IMZ      -0.092300
     36 C51         -1.1640     2.3310    -1.0920 ca         1 IMZ      -0.090000
     37 C52         -2.0480     3.0270    -0.2780 ca         1 IMZ      -0.084500
     38 C55         -1.1250     0.5130     0.4640 ca         1 IMZ      -0.090000
     39 C54         -2.0030     1.1930     1.2920 ca         1 IMZ      -0.084500
     40 C53         -2.4600     2.4460     0.9090 ca         1 IMZ      -0.009900
     41 BR53        -3.6650     3.3750     2.0310 br         1 IMZ      -0.099100
     42 H4          -0.3480    -0.7940    -3.4450 h1         1 IMZ       0.079700
     43 H45         -2.6150     0.3020    -3.2650 ha         1 IMZ       0.126500
     44 H44         -4.9420    -0.0560    -2.6160 ha         1 IMZ       0.127000
     45 H41         -1.3770    -2.8510    -0.6480 ha         1 IMZ       0.126500
     46 H42         -3.7080    -3.2370    -0.0020 ha         1 IMZ       0.127000
     47 H271         1.1810    -4.1700     2.6160 h1         1 IMZ       0.039200
     48 H272         0.9160    -5.4630     1.4390 h1         1 IMZ       0.039200
     49 H281        -1.4190    -4.6900     1.0720 hc         1 IMZ       0.048033
     50 H282        -1.1280    -5.0020     2.7800 hc         1 IMZ       0.048033
     51 H283        -1.1650    -3.3390     2.1900 hc         1 IMZ       0.048033
     52 H25          3.1120    -4.9550     1.5070 ha         1 IMZ       0.134000
     53 H21          3.9900    -1.4870    -1.8820 ha         1 IMZ       0.114000
     54 H22          5.8410    -2.8420    -1.0430 ha         1 IMZ       0.120000
     55 H241         7.4300    -5.4000     0.9540 h1         1 IMZ       0.041700
     56 H242         6.9660    -4.8470    -0.6650 h1         1 IMZ       0.041700
     57 H243         7.2520    -3.6660     0.6310 h1         1 IMZ       0.041700
     58 H151         1.9900     3.3000     1.2010 h1         1 IMZ       0.064950
     59 H152         2.3740     1.8410     2.1150 h1         1 IMZ       0.064950
     60 H141         4.2760     3.4350     2.0580 h1         1 IMZ       0.039950
     61 H142         4.6940     1.8860     1.3120 h1         1 IMZ       0.039950
     62 H131         5.9600     4.4090     0.9800 h1         1 IMZ       0.039200
     63 H132         6.4810     3.1860    -0.1670 h1         1 IMZ       0.039200
     64 H161         7.1080     5.3210    -0.9610 h1         1 IMZ       0.014700
     65 H162         5.8890     4.6940    -2.0570 h1         1 IMZ       0.014700
     66 H17          5.4640     6.8860    -1.4120 ho         1 IMZ       0.437000
     67 H111         2.4860     1.6040    -2.0470 h1         1 IMZ       0.064950
     68 H112         1.9900     3.1470    -1.3450 h1         1 IMZ       0.064950
     69 H121         4.2980     3.2430    -2.0930 h1         1 IMZ       0.039950
     70 H122         4.7220     1.7840    -1.1920 h1         1 IMZ       0.039950
     71 H5           0.5440     1.0190    -2.4540 h1         1 IMZ       0.065700
     72 H51         -0.8390     2.7850    -2.0210 ha         1 IMZ       0.123500
     73 H52         -2.3980     4.0060    -0.5750 ha         1 IMZ       0.131500
     74 H55         -0.7800    -0.4660     0.7700 ha         1 IMZ       0.123500
     75 H54         -2.3250     0.7400     2.2200 ha         1 IMZ       0.131500
@<TRIPOS>BOND
     1     1     2 1   
     2     1     9 1   
     3     1    34 1   
     4     1    42 1   
     5     2     3 ar  
     6     2     5 ar  
     7     3     4 ar  
     8     3    43 1   
     9     4     7 ar  
    10     4    44 1   
    11     5     6 ar  
    12     5    45 1   
    13     6     7 ar  
    14     6    46 1   
    15     7     8 1   
    16     9    10 2   
    17    10    11 1   
    18    10    22 1   
    19    11    12 ar  
    20    11    17 ar  
    21    12    13 1   
    22    12    16 ar  
    23    13    14 1   
    24    14    15 1   
    25    14    47 1   
    26    14    48 1   
    27    15    49 1   
    28    15    50 1   
    29    15    51 1   
    30    16    19 ar  
    31    16    52 1   
    32    17    18 ar  
    33    17    53 1   
    34    18    19 ar  
    35    18    54 1   
    36    19    20 1   
    37    20    21 1   
    38    21    55 1   
    39    21    56 1   
    40    21    57 1   
    41    22    23 1   
    42    22    34 1   
    43    23    24 2   
    44    23    25 1   
    45    25    26 1   
    46    25    32 1   
    47    26    27 1   
    48    26    58 1   
    49    26    59 1   
    50    27    28 1   
    51    27    60 1   
    52    27    61 1   
    53    28    29 1   
    54    28    33 1   
    55    29    30 1   
    56    29    62 1   
    57    29    63 1   
    58    30    31 1   
    59    30    64 1   
    60    30    65 1   
    61    31    66 1   
    62    32    33 1   
    63    32    67 1   
    64    32    68 1   
    65    33    69 1   
    66    33    70 1   
    67    34    35 1   
    68    34    71 1   
    69    35    36 ar  
    70    35    38 ar  
    71    36    37 ar  
    72    36    72 1   
    73    37    40 ar  
    74    37    73 1   
    75    38    39 ar  
    76    38    74 1   
    77    39    40 ar  
    78    39    75 1   
    79    40    41 1   
@<TRIPOS>SUBSTRUCTURE
     1 IMZ         1 TEMP              0 ****  ****    0 ROOT
