@<TRIPOS>MOLECULE
IMZ
   75    79     1     0     0
SMALL
No Charge or Current Charge


@<TRIPOS>ATOM
      1 C4          -0.3330    -1.0590    -2.0190 c5         1 IMZ       0.154800
      2 C40         -1.8690    -1.0060    -2.0840 ca         1 IMZ      -0.060300
      3 C45         -2.4980    -0.0540    -2.9150 ca         1 IMZ      -0.094500
      4 C44         -3.8990     0.0320    -2.9790 ca         1 IMZ      -0.089000
      5 C41         -2.6790    -1.8860    -1.3290 ca         1 IMZ      -0.094500
      6 C42         -4.0810    -1.8010    -1.3920 ca         1 IMZ      -0.089000
      7 C43         -4.6890    -0.8400    -2.2150 ca         1 IMZ      -0.013900
      8 Br43        -6.5960    -0.7200    -2.2940 br         1 IMZ      -0.105100
      9 N3           0.2780    -2.1960    -1.2500 n2         1 IMZ      -0.609900
     10 C2           1.2790    -1.6940    -0.6020 ce         1 IMZ       0.548500
     11 C20          2.4420    -2.5500    -0.2270 ca         1 IMZ      -0.197900
     12 C26          2.2550    -3.7250     0.5280 ca         1 IMZ       0.238100
     13 O26          0.9830    -4.0340     0.9700 os         1 IMZ      -0.337100
     14 C27          0.6930    -5.2070     1.7450 c3         1 IMZ       0.164600
     15 C28         -0.8180    -5.2060     2.0290 c3         1 IMZ      -0.096100
     16 C25          3.3660    -4.5330     0.8510 ca         1 IMZ      -0.247000
     17 C21          3.7380    -2.1960    -0.6530 ca         1 IMZ      -0.009000
     18 C22          4.8380    -3.0050    -0.3290 ca         1 IMZ      -0.246000
     19 C23          4.6520    -4.1790     0.4250 ca         1 IMZ       0.196100
     20 O23          5.6950    -5.0110     0.7740 os         1 IMZ      -0.341100
     21 C24          7.0540    -4.7390     0.3900 c3         1 IMZ       0.148900
     22 N1           1.3860    -0.2980    -0.6950 n          1 IMZ      -0.389300
     23 C10          2.0330     0.4300     0.3170 c          1 IMZ       0.673100
     24 O10          2.3230    -0.0950     1.3820 o          1 IMZ      -0.593100
     25 N10          2.3260     1.7930     0.0960 n          1 IMZ      -0.410800
     26 C15          2.7310     2.7020     1.2030 c6         1 IMZ       0.105000
     27 C14          4.1860     3.2140     1.0350 c6         1 IMZ       0.140300
     28 N13          4.3920     3.8710    -0.2880 n3         1 IMZ      -0.702600
     29 C13          5.7620     4.4480    -0.4200 c3         1 IMZ       0.167800
     30 C16          6.0410     5.3100    -1.6900 c3         1 IMZ       0.166600
     31 O17          5.1960     6.4730    -1.7440 oh         1 IMZ      -0.642000
     32 C11          2.5800     2.3780    -1.2530 c6         1 IMZ       0.105000
     33 C12          4.0270     2.9320    -1.3910 c6         1 IMZ       0.140300
     34 C5           0.2080     0.2730    -1.3600 c5         1 IMZ       0.128000
     35 C50         -0.7510     0.8230    -0.2810 ca         1 IMZ      -0.092300
     36 C51         -1.2180     2.1480    -0.4050 ca         1 IMZ      -0.090000
     37 C52         -2.0910     2.6980     0.5490 ca         1 IMZ      -0.084500
     38 C55         -1.1750     0.0610     0.8350 ca         1 IMZ      -0.090000
     39 C54         -2.0490     0.6090     1.7890 ca         1 IMZ      -0.084500
     40 C53         -2.5070     1.9270     1.6440 ca         1 IMZ      -0.009900
     41 Br53        -3.6980     2.6720     2.9410 br         1 IMZ      -0.099100
     42 H4           0.0500    -1.1180    -3.0480 h1         1 IMZ       0.079700
     43 H45         -1.8960     0.6300    -3.5100 ha         1 IMZ       0.126500
     44 H44         -4.3700     0.7750    -3.6180 ha         1 IMZ       0.127000
     45 H41         -2.2280    -2.6330    -0.6820 ha         1 IMZ       0.126500
     46 H42         -4.6930    -2.4780    -0.8010 ha         1 IMZ       0.127000
     47 H271         1.2440    -5.1950     2.6940 h1         1 IMZ       0.039200
     48 H272         0.9600    -6.1160     1.1910 h1         1 IMZ       0.039200
     49 H281        -1.3870    -5.2270     1.0930 hc         1 IMZ       0.048033
     50 H282        -1.0930    -6.0870     2.6200 hc         1 IMZ       0.048033
     51 H283        -1.1030    -4.3100     2.5940 hc         1 IMZ       0.048033
     52 H25          3.2530    -5.4390     1.4360 ha         1 IMZ       0.134000
     53 H21          3.8940    -1.2980    -1.2470 ha         1 IMZ       0.114000
     54 H22          5.8220    -2.7050    -0.6750 ha         1 IMZ       0.120000
     55 H241         7.7200    -5.5230     0.7690 h1         1 IMZ       0.041700
     56 H242         7.1530    -4.7080    -0.7030 h1         1 IMZ       0.041700
     57 H243         7.3910    -3.7780     0.8020 h1         1 IMZ       0.041700
     58 H151         2.0500     3.5640     1.2150 h1         1 IMZ       0.064950
     59 H152         2.6320     2.2050     2.1780 h1         1 IMZ       0.064950
     60 H141         4.4030     3.9200     1.8500 h1         1 IMZ       0.039950
     61 H142         4.8750     2.3650     1.1510 h1         1 IMZ       0.039950
     62 H131         5.9760     5.0790     0.4530 h1         1 IMZ       0.039200
     63 H132         6.5010     3.6350    -0.4020 h1         1 IMZ       0.039200
     64 H161         7.0940     5.6190    -1.6710 h1         1 IMZ       0.014700
     65 H162         5.9020     4.6960    -2.5900 h1         1 IMZ       0.014700
     66 H17          5.3980     6.9320    -2.5890 ho         1 IMZ       0.437000
     67 H111         2.4480     1.6260    -2.0410 h1         1 IMZ       0.064950
     68 H112         1.8590     3.1880    -1.4350 h1         1 IMZ       0.064950
     69 H121         4.1070     3.4290    -2.3680 h1         1 IMZ       0.039950
     70 H122         4.7250     2.0810    -1.4040 h1         1 IMZ       0.039950
     71 H5           0.4430     1.0210    -2.1260 h1         1 IMZ       0.065700
     72 H51         -0.9040     2.7590    -1.2490 ha         1 IMZ       0.123500
     73 H52         -2.4440     3.7210     0.4370 ha         1 IMZ       0.131500
     74 H55         -0.8350    -0.9620     0.9690 ha         1 IMZ       0.123500
     75 H54         -2.3690     0.0110     2.6380 ha         1 IMZ       0.131500
@<TRIPOS>BOND
     1     1     2 1   
     2     1     9 1   
     3     1    34 1   
     4     1    42 1   
     5     2     3 ar  
     6     2     5 ar  
     7     3     4 ar  
     8     3    43 1   
     9     4     7 ar  
    10     4    44 1   
    11     5     6 ar  
    12     5    45 1   
    13     6     7 ar  
    14     6    46 1   
    15     7     8 1   
    16     9    10 2   
    17    10    11 1   
    18    10    22 1   
    19    11    12 ar  
    20    11    17 ar  
    21    12    13 1   
    22    12    16 ar  
    23    13    14 1   
    24    14    15 1   
    25    14    47 1   
    26    14    48 1   
    27    15    49 1   
    28    15    50 1   
    29    15    51 1   
    30    16    19 ar  
    31    16    52 1   
    32    17    18 ar  
    33    17    53 1   
    34    18    19 ar  
    35    18    54 1   
    36    19    20 1   
    37    20    21 1   
    38    21    55 1   
    39    21    56 1   
    40    21    57 1   
    41    22    23 1   
    42    22    34 1   
    43    23    24 2   
    44    23    25 1   
    45    25    26 1   
    46    25    32 1   
    47    26    27 1   
    48    26    58 1   
    49    26    59 1   
    50    27    28 1   
    51    27    60 1   
    52    27    61 1   
    53    28    29 1   
    54    28    33 1   
    55    29    30 1   
    56    29    62 1   
    57    29    63 1   
    58    30    31 1   
    59    30    64 1   
    60    30    65 1   
    61    31    66 1   
    62    32    33 1   
    63    32    67 1   
    64    32    68 1   
    65    33    69 1   
    66    33    70 1   
    67    34    35 1   
    68    34    71 1   
    69    35    36 ar  
    70    35    38 ar  
    71    36    37 ar  
    72    36    72 1   
    73    37    40 ar  
    74    37    73 1   
    75    38    39 ar  
    76    38    74 1   
    77    39    40 ar  
    78    39    75 1   
    79    40    41 1   
@<TRIPOS>SUBSTRUCTURE
     1 IMZ         1 TEMP              0 ****  ****    0 ROOT
