@<TRIPOS>MOLECULE
IN0
   69    72     1     0     0
SMALL
No Charge or Current Charge


@<TRIPOS>ATOM
      1 C1           0.5080    -0.8660    -1.4950 ca         1 IN0      -0.116300
      2 C7          -0.1180     0.3970    -0.8850 c3         1 IN0       0.273900
      3 C17         -1.6490     0.4810    -1.0260 ca         1 IN0      -0.121300
      4 C28         -2.4730     0.1760     0.0850 ca         1 IN0      -0.022000
      5 C27         -3.8710     0.2410    -0.0130 ca         1 IN0      -0.071000
      6 C26         -4.4740     0.6050    -1.2240 ca         1 IN0      -0.132000
      7 C16         -3.6800     0.9010    -2.3450 ca         1 IN0      -0.047000
      8 C29         -4.3070     1.2540    -3.5550 ca         1 IN0      -0.096000
      9 C30         -3.5380     1.5470    -4.6910 ca         1 IN0      -0.136000
     10 C31         -2.1400     1.4850    -4.6210 ca         1 IN0      -0.130000
     11 C33         -1.5070     1.1340    -3.4170 ca         1 IN0      -0.101000
     12 C15         -2.2660     0.8400    -2.2590 ca         1 IN0      -0.023000
     13 O6           0.2420     0.4880     0.5070 os         1 IN0      -0.411000
     14 C5           1.6160     0.1950     0.8600 c3         1 IN0       0.117300
     15 C14          1.7890     0.6680     2.3220 c3         1 IN0      -0.157400
     16 C11          0.8880    -0.1420     3.2520 c          1 IN0       0.590100
     17 O58          1.1600    -1.2890     3.5850 o          1 IN0      -0.656100
     18 N23         -0.2370     0.5200     3.6960 ns         1 IN0      -0.411900
     19 C38         -1.2540    -0.0320     4.6190 c3         1 IN0      -0.011300
     20 C61         -1.1120     0.5440     6.0570 c3         1 IN0      -0.208400
     21 C62          0.2210     0.1310     6.7020 c          1 IN0       0.705000
     22 O64          1.1770     0.8840     6.5970 o          1 IN0      -0.762500
     23 O63          0.2610    -0.9290     7.3080 o          1 IN0      -0.762500
     24 C60         -2.6820     0.1940     4.0260 c          1 IN0       0.725000
     25 O66         -3.3660    -0.7880     3.7730 o          1 IN0      -0.760500
     26 O65         -3.0290     1.3350     3.7470 o          1 IN0      -0.760500
     27 C4           2.6400     0.8220    -0.1400 c          1 IN0       0.532000
     28 O13          3.3470     1.7710     0.1860 o          1 IN0      -0.541000
     29 N3           2.7560     0.2060    -1.4200 n          1 IN0      -0.243400
     30 C2           1.8850    -0.8700    -1.8470 ca         1 IN0      -0.018000
     31 C8           2.4520    -2.0700    -2.3330 ca         1 IN0      -0.138000
     32 C9           1.6550    -3.1960    -2.5920 ca         1 IN0      -0.094000
     33 C20          0.2840    -3.1600    -2.3110 ca         1 IN0       0.104000
     34 Cl36        -0.7140    -4.5740    -2.6220 cl         1 IN0      -0.217000
     35 C21         -0.2850    -2.0090    -1.7520 ca         1 IN0      -0.041000
     36 C43          3.8760     0.6320    -2.3180 c3         1 IN0       0.107000
     37 C10          3.4890     1.5490    -3.5230 c3         1 IN0      -0.060000
     38 C32          4.7970     2.0170    -4.2140 c3         1 IN0      -0.083433
     39 C25          2.7070     2.8000    -3.0410 c3         1 IN0      -0.083433
     40 C24          2.6390     0.7710    -4.5630 c3         1 IN0      -0.083433
     41 H7           0.3010     1.2700    -1.3980 h1         1 IN0       0.040700
     42 H28         -2.0380    -0.1170     1.0390 ha         1 IN0       0.217000
     43 H27         -4.4850     0.0070     0.8540 ha         1 IN0       0.150000
     44 H26         -5.5580     0.6510    -1.2900 ha         1 IN0       0.100000
     45 H29         -5.3920     1.3010    -3.6170 ha         1 IN0       0.099000
     46 H30         -4.0260     1.8190    -5.6240 ha         1 IN0       0.092000
     47 H31         -1.5420     1.7080    -5.5020 ha         1 IN0       0.094000
     48 H33         -0.4240     1.0940    -3.4090 ha         1 IN0       0.108000
     49 H5           1.7890    -0.8900     0.8340 h1         1 IN0       0.082700
     50 H141         2.8310     0.5060     2.6180 hc         1 IN0       0.067200
     51 H142         1.5430     1.7350     2.3770 hc         1 IN0       0.067200
     52 H23         -0.3840     1.4550     3.3350 hn         1 IN0       0.305500
     53 H38         -1.1180    -1.1190     4.6770 h1         1 IN0       0.074700
     54 H611        -1.1720     1.6350     5.9600 hc         1 IN0       0.030700
     55 H612        -1.9460     0.1070     6.6200 hc         1 IN0       0.030700
     56 H8           3.5210    -2.1520    -2.5090 ha         1 IN0       0.113000
     57 H9           2.1030    -4.1030    -2.9890 ha         1 IN0       0.116000
     58 H21         -1.3450    -2.0210    -1.5140 ha         1 IN0       0.154000
     59 H431         4.3850    -0.2540    -2.7100 h1         1 IN0       0.052200
     60 H432         4.6370     1.1520    -1.7230 h1         1 IN0       0.052200
     61 H321         4.5790     2.6600    -5.0760 hc         1 IN0       0.033367
     62 H322         5.4270     2.5870    -3.5200 hc         1 IN0       0.033367
     63 H323         5.3790     1.1600    -4.5730 hc         1 IN0       0.033367
     64 H251         3.2840     3.3580    -2.2940 hc         1 IN0       0.033367
     65 H252         2.4970     3.4760    -3.8790 hc         1 IN0       0.033367
     66 H253         1.7480     2.5220    -2.5930 hc         1 IN0       0.033367
     67 H241         3.1600    -0.1350    -4.8960 hc         1 IN0       0.033367
     68 H242         1.6720     0.4700    -4.1480 hc         1 IN0       0.033367
     69 H243         2.4390     1.3900    -5.4460 hc         1 IN0       0.033367
@<TRIPOS>BOND
     1     1     2 1   
     2     1    30 ar  
     3     1    35 ar  
     4     2     3 1   
     5     2    13 1   
     6     2    41 1   
     7     3     4 ar  
     8     3    12 ar  
     9     4     5 ar  
    10     4    42 1   
    11     5     6 ar  
    12     5    43 1   
    13     6     7 ar  
    14     6    44 1   
    15     7     8 ar  
    16     7    12 ar  
    17     8     9 ar  
    18     8    45 1   
    19     9    10 ar  
    20     9    46 1   
    21    10    11 ar  
    22    10    47 1   
    23    11    12 ar  
    24    11    48 1   
    25    13    14 1   
    26    14    15 1   
    27    14    27 1   
    28    14    49 1   
    29    15    16 1   
    30    15    50 1   
    31    15    51 1   
    32    16    17 2   
    33    16    18 1   
    34    18    19 1   
    35    18    52 1   
    36    19    20 1   
    37    19    24 1   
    38    19    53 1   
    39    20    21 1   
    40    20    54 1   
    41    20    55 1   
    42    21    22 1   
    43    21    23 1   
    44    24    25 1   
    45    24    26 1   
    46    27    28 2   
    47    27    29 1   
    48    29    30 1   
    49    29    36 1   
    50    30    31 ar  
    51    31    32 ar  
    52    31    56 1   
    53    32    33 ar  
    54    32    57 1   
    55    33    34 1   
    56    33    35 ar  
    57    35    58 1   
    58    36    37 1   
    59    36    59 1   
    60    36    60 1   
    61    37    38 1   
    62    37    39 1   
    63    37    40 1   
    64    38    61 1   
    65    38    62 1   
    66    38    63 1   
    67    39    64 1   
    68    39    65 1   
    69    39    66 1   
    70    40    67 1   
    71    40    68 1   
    72    40    69 1   
@<TRIPOS>SUBSTRUCTURE
     1 IN0         1 TEMP              0 ****  ****    0 ROOT
