@<TRIPOS>MOLECULE
IN0
   69    72     1     0     0
SMALL
abcg2


@<TRIPOS>ATOM
      1 C1           0.4550    -0.8310    -1.6080 ca         1 IN0      -0.116300
      2 C7          -0.0710     0.4230    -0.9390 c3         1 IN0       0.273900
      3 C17         -1.5710     0.5710    -1.0120 ca         1 IN0      -0.121300
      4 C28         -2.3460     0.2950     0.0850 ca         1 IN0      -0.022000
      5 C27         -3.7510     0.4060     0.0260 ca         1 IN0      -0.071000
      6 C26         -4.3700     0.7910    -1.1280 ca         1 IN0      -0.132000
      7 C16         -3.6060     1.0880    -2.2800 ca         1 IN0      -0.047000
      8 C29         -4.2310     1.4890    -3.4840 ca         1 IN0      -0.096000
      9 C30         -3.4920     1.7760    -4.5990 ca         1 IN0      -0.136000
     10 C31         -2.0880     1.6730    -4.5540 ca         1 IN0      -0.130000
     11 C33         -1.4580     1.2850    -3.4020 ca         1 IN0      -0.101000
     12 C15         -2.1890     0.9810    -2.2290 ca         1 IN0      -0.023000
     13 O6           0.2970     0.4690     0.4210 os         1 IN0      -0.411000
     14 C5           1.5810    -0.0030     0.7620 c3         1 IN0       0.117300
     15 C14          1.7990     0.3780     2.2120 c3         1 IN0      -0.157400
     16 C11          0.8830    -0.4260     3.1180 c          1 IN0       0.590100
     17 O58          0.9480    -1.6510     3.1510 o          1 IN0      -0.656100
     18 N23          0.0700     0.2820     3.9020 ns         1 IN0      -0.411900
     19 C38         -0.8180    -0.3310     4.8650 c3         1 IN0      -0.011300
     20 C61         -1.4640     0.7670     5.7020 c3         1 IN0      -0.208400
     21 C62         -0.4660     1.6030     6.5290 c          1 IN0       0.705000
     22 O64         -0.6730     2.8320     6.5830 o          1 IN0      -0.762500
     23 O63          0.4500     0.9800     7.1010 o          1 IN0      -0.762500
     24 C60         -1.9230    -1.2020     4.2240 c          1 IN0       0.725000
     25 O66         -2.3650    -2.1120     4.9560 o          1 IN0      -0.760500
     26 O65         -2.3190    -0.9010     3.0850 o          1 IN0      -0.760500
     27 C4           2.6490     0.6010    -0.1570 c          1 IN0       0.532000
     28 O13          3.3960     1.4820     0.2240 o          1 IN0      -0.541000
     29 N3           2.7180     0.0700    -1.4150 n          1 IN0      -0.243400
     30 C2           1.8340    -0.9630    -1.8160 ca         1 IN0      -0.018000
     31 C8           2.3290    -2.1160    -2.4170 ca         1 IN0      -0.138000
     32 C9           1.4780    -3.1300    -2.8180 ca         1 IN0      -0.094000
     33 C20          0.1180    -2.9950    -2.5980 ca         1 IN0       0.104000
     34 CL36        -0.9610    -4.2580    -3.0870 cl         1 IN0      -0.217000
     35 C21         -0.3930    -1.8640    -1.9860 ca         1 IN0      -0.041000
     36 C43          3.8070     0.4840    -2.3010 c3         1 IN0       0.107000
     37 C10          3.4350     1.4710    -3.4190 c3         1 IN0      -0.060000
     38 C32          4.7460     1.8170    -4.1310 c3         1 IN0      -0.083433
     39 C25          2.8270     2.7520    -2.8490 c3         1 IN0      -0.083433
     40 C24          2.4790     0.8390    -4.4300 c3         1 IN0      -0.083433
     41 H7           0.3860     1.2820    -1.4560 h1         1 IN0       0.040700
     42 H28         -1.8990    -0.0110     1.0210 ha         1 IN0       0.217000
     43 H27         -4.3290     0.1740     0.9110 ha         1 IN0       0.150000
     44 H26         -5.4490     0.8720    -1.1770 ha         1 IN0       0.100000
     45 H29         -5.3110     1.5660    -3.5090 ha         1 IN0       0.099000
     46 H30         -3.9800     2.0830    -5.5150 ha         1 IN0       0.092000
     47 H31         -1.5050     1.9040    -5.4360 ha         1 IN0       0.094000
     48 H33         -0.3790     1.2140    -3.4020 ha         1 IN0       0.108000
     49 H5           1.6300    -1.0970     0.6820 h1         1 IN0       0.082700
     50 H141         2.8240     0.1340     2.4990 hc         1 IN0       0.067200
     51 H142         1.6740     1.4530     2.3420 hc         1 IN0       0.067200
     52 H23          0.0110     1.2770     3.7540 hn         1 IN0       0.305500
     53 H38         -0.2240    -0.9610     5.5310 h1         1 IN0       0.074700
     54 H611        -2.0660     1.4160     5.0590 hc         1 IN0       0.030700
     55 H612        -2.1610     0.2890     6.3980 hc         1 IN0       0.030700
     56 H8           3.3910    -2.2470    -2.5670 ha         1 IN0       0.113000
     57 H9           1.8790    -4.0190    -3.2850 ha         1 IN0       0.116000
     58 H21         -1.4570    -1.7770    -1.8160 ha         1 IN0       0.154000
     59 H431         4.2510    -0.4060    -2.7480 h1         1 IN0       0.052200
     60 H432         4.5780     0.9310    -1.6770 h1         1 IN0       0.052200
     61 H321         4.5640     2.5170    -4.9480 hc         1 IN0       0.033367
     62 H322         5.4560     2.2850    -3.4450 hc         1 IN0       0.033367
     63 H323         5.2210     0.9300    -4.5540 hc         1 IN0       0.033367
     64 H251         3.5080     3.2380    -2.1490 hc         1 IN0       0.033367
     65 H252         2.6150     3.4600    -3.6530 hc         1 IN0       0.033367
     66 H253         1.8870     2.5690    -2.3240 hc         1 IN0       0.033367
     67 H241         2.8890    -0.0810    -4.8520 hc         1 IN0       0.033367
     68 H242         1.5120     0.5900    -3.9910 hc         1 IN0       0.033367
     69 H243         2.2920     1.5280    -5.2570 hc         1 IN0       0.033367
@<TRIPOS>BOND
     1     1     2 1   
     2     1    30 ar  
     3     1    35 ar  
     4     2     3 1   
     5     2    13 1   
     6     2    41 1   
     7     3     4 ar  
     8     3    12 ar  
     9     4     5 ar  
    10     4    42 1   
    11     5     6 ar  
    12     5    43 1   
    13     6     7 ar  
    14     6    44 1   
    15     7     8 ar  
    16     7    12 ar  
    17     8     9 ar  
    18     8    45 1   
    19     9    10 ar  
    20     9    46 1   
    21    10    11 ar  
    22    10    47 1   
    23    11    12 ar  
    24    11    48 1   
    25    13    14 1   
    26    14    15 1   
    27    14    27 1   
    28    14    49 1   
    29    15    16 1   
    30    15    50 1   
    31    15    51 1   
    32    16    17 2   
    33    16    18 1   
    34    18    19 1   
    35    18    52 1   
    36    19    20 1   
    37    19    24 1   
    38    19    53 1   
    39    20    21 1   
    40    20    54 1   
    41    20    55 1   
    42    21    22 1   
    43    21    23 1   
    44    24    25 1   
    45    24    26 1   
    46    27    28 2   
    47    27    29 1   
    48    29    30 1   
    49    29    36 1   
    50    30    31 ar  
    51    31    32 ar  
    52    31    56 1   
    53    32    33 ar  
    54    32    57 1   
    55    33    34 1   
    56    33    35 ar  
    57    35    58 1   
    58    36    37 1   
    59    36    59 1   
    60    36    60 1   
    61    37    38 1   
    62    37    39 1   
    63    37    40 1   
    64    38    61 1   
    65    38    62 1   
    66    38    63 1   
    67    39    64 1   
    68    39    65 1   
    69    39    66 1   
    70    40    67 1   
    71    40    68 1   
    72    40    69 1   
@<TRIPOS>SUBSTRUCTURE
     1 IN0         1 TEMP              0 ****  ****    0 ROOT
