@<TRIPOS>MOLECULE
IN1
   47    47     1     0     0
SMALL
abcg2


@<TRIPOS>ATOM
      1 C1A         24.9140    39.8130     3.4390 c3         1 IN1       0.168600
      2 C2A         24.4920    39.2570     4.7830 c3         1 IN1      -0.061400
      3 C3A         25.2350    41.0800     6.3780 c3         1 IN1       0.096600
      4 C7          25.7230    44.6000     9.7490 c3         1 IN1      -0.081100
      5 C1          26.4820    41.3010     2.4920 c6         1 IN1       0.402300
      6 C2          27.5690    42.2830     2.9130 c6         1 IN1       0.153300
      7 C3          28.0300    43.0530     1.6810 c6         1 IN1       0.131300
      8 C4          28.4570    42.0990     0.5720 c6         1 IN1       0.102300
      9 C5          27.3120    41.1190     0.2880 c6         1 IN1       0.154300
     10 C6          27.6880    40.0710    -0.7360 c3         1 IN1       0.170600
     11 O5          26.9730    40.4520     1.4870 os         1 IN1      -0.474000
     12 O2          27.0350    43.1390     3.8890 oh         1 IN1      -0.707000
     13 O3          29.0750    43.9030     2.0830 oh         1 IN1      -0.662000
     14 O4          28.7720    42.8850    -0.5560 oh         1 IN1      -0.723000
     15 O6          26.5570    39.2840    -1.0210 oh         1 IN1      -0.705000
     16 O1          26.1300    40.5290     3.5730 os         1 IN1      -0.443000
     17 C6A         24.0520    40.2620     5.8500 c3         1 IN1       0.408000
     18 O1R         23.0870    41.0930     5.2670 oh         1 IN1      -0.676000
     19 O2A         24.7390    41.8560     7.4760 os         1 IN1      -0.490100
     20 C4A         25.5480    42.7670     8.0200 c          1 IN1       0.597100
     21 C5A         24.8720    43.4950     9.1490 c3         1 IN1      -0.138400
     22 O3A         26.6740    42.9550     7.6400 o          1 IN1      -0.469000
     23 O4S         23.5050    39.4840     6.8820 oh         1 IN1      -0.676000
     24 H11         25.0370    38.9760     2.7440 h1         1 IN1       0.046200
     25 H12         24.1340    40.4620     3.0260 h1         1 IN1       0.046200
     26 H21         23.6490    38.5850     4.5980 hc         1 IN1       0.071700
     27 H22         25.2920    38.6340     5.1910 hc         1 IN1       0.071700
     28 H31         26.0320    40.4160     6.7220 h1         1 IN1       0.085200
     29 H32         25.6360    41.7320     5.6050 h1         1 IN1       0.085200
     30 H71         25.1770    45.0900    10.5550 hc         1 IN1       0.045033
     31 H72         26.6520    44.2140    10.1660 hc         1 IN1       0.045033
     32 H73         25.9740    45.3600     9.0100 hc         1 IN1       0.045033
     33 H1          25.6100    41.8650     2.1080 h2         1 IN1       0.036700
     34 H2          28.4190    41.7040     3.3050 h1         1 IN1       0.065700
     35 H3          27.1730    43.6380     1.3070 h1         1 IN1       0.053700
     36 H4          29.3320    41.5280     0.9150 h1         1 IN1       0.058700
     37 H5          26.4480    41.6920    -0.0880 h1         1 IN1       0.061700
     38 H61         28.0590    40.5820    -1.6320 h1         1 IN1       0.025700
     39 H62         28.5190    39.4700    -0.3390 h1         1 IN1       0.025700
     40 HO2         27.7120    43.7790     4.1310 ho         1 IN1       0.527000
     41 HO3         29.2930    44.4830     1.3460 ho         1 IN1       0.463000
     42 HO4         29.4630    42.4500    -1.0640 ho         1 IN1       0.511000
     43 HO6         26.8040    38.6350    -1.6850 ho         1 IN1       0.505000
     44 HO1         22.8970    41.8390     5.8490 ho         1 IN1       0.455000
     45 H51         24.6040    42.7570     9.9100 hc         1 IN1       0.068200
     46 H52         23.9220    43.8930     8.7820 hc         1 IN1       0.068200
     47 HOS4        23.3740    40.0280     7.6680 ho         1 IN1       0.455000
@<TRIPOS>BOND
     1     1     2 1   
     2     1    16 1   
     3     1    24 1   
     4     1    25 1   
     5     2    17 1   
     6     2    26 1   
     7     2    27 1   
     8     3    17 1   
     9     3    19 1   
    10     3    28 1   
    11     3    29 1   
    12     4    21 1   
    13     4    30 1   
    14     4    31 1   
    15     4    32 1   
    16     5     6 1   
    17     5    11 1   
    18     5    16 1   
    19     5    33 1   
    20     6     7 1   
    21     6    12 1   
    22     6    34 1   
    23     7     8 1   
    24     7    13 1   
    25     7    35 1   
    26     8     9 1   
    27     8    14 1   
    28     8    36 1   
    29     9    10 1   
    30     9    11 1   
    31     9    37 1   
    32    10    15 1   
    33    10    38 1   
    34    10    39 1   
    35    12    40 1   
    36    13    41 1   
    37    14    42 1   
    38    15    43 1   
    39    17    18 1   
    40    17    23 1   
    41    18    44 1   
    42    19    20 1   
    43    20    21 1   
    44    20    22 2   
    45    21    45 1   
    46    21    46 1   
    47    23    47 1   
@<TRIPOS>SUBSTRUCTURE
     1 IN1         1 TEMP              0 ****  ****    0 ROOT
