@<TRIPOS>MOLECULE
IN1
   47    47     1     0     0
SMALL
No Charge or Current Charge


@<TRIPOS>ATOM
      1 C1A         24.8050    40.1580     3.4720 c3         1 IN1       0.168600
      2 C2A         24.4310    39.4060     4.7670 c3         1 IN1      -0.061400
      3 C3A         25.2450    41.2060     6.4930 c3         1 IN1       0.096600
      4 C7          24.4970    44.6000     9.4300 c3         1 IN1      -0.081100
      5 C1          26.6260    41.4720     2.5180 c6         1 IN1       0.402300
      6 C2          27.9820    42.1690     2.8810 c6         1 IN1       0.153300
      7 C3          28.5100    42.9170     1.6250 c6         1 IN1       0.131300
      8 C4          28.6320    41.9410     0.4160 c6         1 IN1       0.102300
      9 C5          27.2510    41.2410     0.1830 c6         1 IN1       0.154300
     10 C6          27.2920    40.1740    -0.9630 c3         1 IN1       0.170600
     11 O5          26.8280    40.5790     1.4040 os         1 IN1      -0.474000
     12 O2          27.8770    43.0920     3.9910 oh         1 IN1      -0.707000
     13 O3          29.7800    43.5370     1.8950 oh         1 IN1      -0.662000
     14 O4          29.0830    42.6700    -0.7480 oh         1 IN1      -0.723000
     15 O6          26.0370    39.4880    -1.1480 oh         1 IN1      -0.705000
     16 O1          26.1210    40.7130     3.6310 os         1 IN1      -0.443000
     17 C6A         24.0850    40.2950     5.9880 c3         1 IN1       0.408000
     18 O1R         22.9500    41.0880     5.7030 oh         1 IN1      -0.676000
     19 O2A         24.8350    41.8110     7.7470 os         1 IN1      -0.490100
     20 C4A         25.7250    42.6360     8.3870 c          1 IN1       0.597100
     21 C5A         25.1360    43.2160     9.6750 c3         1 IN1      -0.138400
     22 O3A         26.8440    42.9000     7.9730 o          1 IN1      -0.469000
     23 O4S         23.6770    39.4640     7.0540 oh         1 IN1      -0.676000
     24 H11         24.7910    39.4480     2.6350 h1         1 IN1       0.046200
     25 H12         24.0660    40.9430     3.2620 h1         1 IN1       0.046200
     26 H21         23.5640    38.7710     4.5470 hc         1 IN1       0.071700
     27 H22         25.2480    38.7240     5.0310 hc         1 IN1       0.071700
     28 H31         26.1500    40.5970     6.6250 h1         1 IN1       0.085200
     29 H32         25.4650    41.9760     5.7420 h1         1 IN1       0.085200
     30 H71         24.0730    44.9980    10.3600 hc         1 IN1       0.045033
     31 H72         25.2450    45.3130     9.0610 hc         1 IN1       0.045033
     32 H73         23.6920    44.5300     8.6880 hc         1 IN1       0.045033
     33 H1          25.8890    42.2420     2.2440 h2         1 IN1       0.036700
     34 H2          28.7010    41.3740     3.1310 h1         1 IN1       0.065700
     35 H3          27.7740    43.6910     1.3560 h1         1 IN1       0.053700
     36 H4          29.3660    41.1630     0.6780 h1         1 IN1       0.058700
     37 H5          26.5000    41.9980    -0.0870 h1         1 IN1       0.061700
     38 H61         27.5770    40.6780    -1.8950 h1         1 IN1       0.025700
     39 H62         28.0830    39.4490    -0.7270 h1         1 IN1       0.025700
     40 HO2         28.6770    43.6660     3.9120 ho         1 IN1       0.527000
     41 HO3         30.1500    43.7490     1.0060 ho         1 IN1       0.463000
     42 HO4         29.5320    42.0300    -1.3500 ho         1 IN1       0.511000
     43 HO6         26.1890    38.7910    -1.8280 ho         1 IN1       0.505000
     44 HO1         22.9920    41.8270     6.3450 ho         1 IN1       0.455000
     45 H51         25.9300    43.3190    10.4230 hc         1 IN1       0.068200
     46 H52         24.3440    42.5520    10.0410 hc         1 IN1       0.068200
     47 HOS4        23.8840    39.9920     7.8550 ho         1 IN1       0.455000
@<TRIPOS>BOND
     1     1     2 1   
     2     1    16 1   
     3     1    24 1   
     4     1    25 1   
     5     2    17 1   
     6     2    26 1   
     7     2    27 1   
     8     3    17 1   
     9     3    19 1   
    10     3    28 1   
    11     3    29 1   
    12     4    21 1   
    13     4    30 1   
    14     4    31 1   
    15     4    32 1   
    16     5     6 1   
    17     5    11 1   
    18     5    16 1   
    19     5    33 1   
    20     6     7 1   
    21     6    12 1   
    22     6    34 1   
    23     7     8 1   
    24     7    13 1   
    25     7    35 1   
    26     8     9 1   
    27     8    14 1   
    28     8    36 1   
    29     9    10 1   
    30     9    11 1   
    31     9    37 1   
    32    10    15 1   
    33    10    38 1   
    34    10    39 1   
    35    12    40 1   
    36    13    41 1   
    37    14    42 1   
    38    15    43 1   
    39    17    18 1   
    40    17    23 1   
    41    18    44 1   
    42    19    20 1   
    43    20    21 1   
    44    20    22 2   
    45    21    45 1   
    46    21    46 1   
    47    23    47 1   
@<TRIPOS>SUBSTRUCTURE
     1 IN1         1 TEMP              0 ****  ****    0 ROOT
