@<TRIPOS>MOLECULE
IN2
   32    31     1     0     0
SMALL
bcc


@<TRIPOS>ATOM
      1 N1           1.4850    -0.0430    -5.5220 n8         1 IN2      -0.888800
      2 C2           0.7630    -0.6680    -4.4220 c3         1 IN2       0.144800
      3 C3           0.6420     0.2820    -3.2410 c3         1 IN2      -0.074400
      4 C4          -0.1020    -0.3320    -2.0620 c3         1 IN2      -0.109400
      5 C5          -0.2080     0.6340    -0.8870 c3         1 IN2       0.089000
      6 N6          -0.8690     0.0900     0.2830 n          1 IN2      -0.400400
      7 N7          -0.1450    -0.8330     0.9950 ns         1 IN2      -0.384500
      8 C8           0.9020    -0.4710     1.8060 c          1 IN2       0.777100
      9 O8           1.8490    -1.2430     1.9580 o          1 IN2      -0.703100
     10 N9           0.8400     0.7380     2.4170 n          1 IN2      -0.475800
     11 C10         -0.3960     1.4240     2.7430 c3         1 IN2       0.104800
     12 C11          2.0190     1.2270     3.0970 c3         1 IN2       0.104800
     13 C12         -2.2880     0.0110     0.3560 c          1 IN2       1.019600
     14 O1          -2.7640    -0.6930     1.2630 o          1 IN2      -0.816300
     15 O2          -2.9050     0.6850    -0.4910 o          1 IN2      -0.816300
     16 HN11         0.9300     0.7210    -5.8880 hn         1 IN2       0.326300
     17 HN12         1.5730    -0.7020    -6.2850 hn         1 IN2       0.326300
     18 H21          1.3180    -1.5570    -4.1080 h1         1 IN2       0.025700
     19 H22         -0.2420    -1.0180    -4.7000 h1         1 IN2       0.025700
     20 H31          0.1240     1.1930    -3.5590 hc         1 IN2       0.038700
     21 H32          1.6450     0.5900    -2.9280 hc         1 IN2       0.038700
     22 H41          0.4150    -1.2460    -1.7470 hc         1 IN2       0.042200
     23 H42         -1.1080    -0.6290    -2.3700 hc         1 IN2       0.042200
     24 H51         -0.7440     1.5310    -1.1940 h1         1 IN2       0.041200
     25 H52          0.7930     0.9610    -0.5870 h1         1 IN2       0.041200
     26 HN7          0.0010    -1.7310     0.5510 hn         1 IN2       0.288500
     27 H101        -0.3140     1.8150     3.7590 h1         1 IN2       0.032200
     28 H102        -0.5980     2.2620     2.0740 h1         1 IN2       0.032200
     29 H103        -1.2450     0.7480     2.7210 h1         1 IN2       0.032200
     30 H111         2.9240     0.8520     2.6290 h1         1 IN2       0.032200
     31 H112         2.0360     2.3160     3.0390 h1         1 IN2       0.032200
     32 H113         2.0350     0.9480     4.1550 h1         1 IN2       0.032200
@<TRIPOS>BOND
     1     1     2 1   
     2     1    16 1   
     3     1    17 1   
     4     2     3 1   
     5     2    18 1   
     6     2    19 1   
     7     3     4 1   
     8     3    20 1   
     9     3    21 1   
    10     4     5 1   
    11     4    22 1   
    12     4    23 1   
    13     5     6 1   
    14     5    24 1   
    15     5    25 1   
    16     6     7 1   
    17     6    13 1   
    18     7     8 1   
    19     7    26 1   
    20     8     9 2   
    21     8    10 1   
    22    10    11 1   
    23    10    12 1   
    24    11    27 1   
    25    11    28 1   
    26    11    29 1   
    27    12    30 1   
    28    12    31 1   
    29    12    32 1   
    30    13    14 1   
    31    13    15 1   
@<TRIPOS>SUBSTRUCTURE
     1 IN2         1 TEMP              0 ****  ****    0 ROOT
