@<TRIPOS>MOLECULE
IN2
   32    31     1     0     0
SMALL
No Charge or Current Charge


@<TRIPOS>ATOM
      1 N1           1.7500     0.1350    -5.2770 n8         1 IN2      -0.999200
      2 C2           1.0690    -0.5770    -4.1810 c3         1 IN2       0.144800
      3 C3           0.6280     0.3900    -3.0620 c3         1 IN2      -0.074400
      4 C4          -0.0910    -0.3280    -1.8980 c3         1 IN2      -0.109400
      5 C5          -0.5320     0.6390    -0.7780 c3         1 IN2       0.089000
      6 N6          -1.2360    -0.0400     0.3440 n          1 IN2      -0.333400
      7 N7          -0.4810    -1.0050     1.1490 ns         1 IN2      -0.317500
      8 C8           0.7520    -0.6170     1.6620 c          1 IN2       0.643100
      9 O8           1.6730    -1.4220     1.6650 o          1 IN2      -0.703100
     10 N9           0.9190     0.6810     2.2100 n          1 IN2      -0.408800
     11 C10         -0.2210     1.5500     2.5850 c3         1 IN2       0.104800
     12 C11          2.2620     1.1280     2.6370 c3         1 IN2       0.104800
     13 C12         -2.6570    -0.0810     0.4100 c          1 IN2       0.742000
     14 O1          -3.1780    -0.7970     1.2520 o          1 IN2      -0.711000
     15 O2          -3.3050     0.6060    -0.3640 o          1 IN2      -0.711000
     16 HN11         1.0860     0.7850    -5.7150 hn         1 IN2       0.381500
     17 HN12         1.9650    -0.5330    -6.0270 hn         1 IN2       0.381500
     18 H21          1.7570    -1.3300    -3.7700 h1         1 IN2       0.025700
     19 H22          0.1910    -1.0950    -4.5900 h1         1 IN2       0.025700
     20 H31         -0.0420     1.1500    -3.4820 hc         1 IN2       0.038700
     21 H32          1.5080     0.9150    -2.6700 hc         1 IN2       0.038700
     22 H41          0.5780    -1.0890    -1.4790 hc         1 IN2       0.042200
     23 H42         -0.9730    -0.8520    -2.2860 hc         1 IN2       0.042200
     24 H51         -1.1710     1.4200    -1.2070 h1         1 IN2       0.041200
     25 H52          0.3570     1.1470    -0.3830 h1         1 IN2       0.041200
     26 HN7         -0.5270    -1.9630     0.8240 hn         1 IN2       0.288500
     27 H101         0.0580     2.1960     3.4270 h1         1 IN2       0.032200
     28 H102        -0.5030     2.1830     1.7340 h1         1 IN2       0.032200
     29 H103        -1.0800     0.9410     2.8920 h1         1 IN2       0.032200
     30 H111         2.9990     0.8960     1.8580 h1         1 IN2       0.032200
     31 H112         2.2660     2.2120     2.8090 h1         1 IN2       0.032200
     32 H113         2.5430     0.6160     3.5660 h1         1 IN2       0.032200
@<TRIPOS>BOND
     1     1     2 1   
     2     1    16 1   
     3     1    17 1   
     4     2     3 1   
     5     2    18 1   
     6     2    19 1   
     7     3     4 1   
     8     3    20 1   
     9     3    21 1   
    10     4     5 1   
    11     4    22 1   
    12     4    23 1   
    13     5     6 1   
    14     5    24 1   
    15     5    25 1   
    16     6     7 1   
    17     6    13 1   
    18     7     8 1   
    19     7    26 1   
    20     8     9 2   
    21     8    10 1   
    22    10    11 1   
    23    10    12 1   
    24    11    27 1   
    25    11    28 1   
    26    11    29 1   
    27    12    30 1   
    28    12    31 1   
    29    12    32 1   
    30    13    14 1   
    31    13    15 1   
@<TRIPOS>SUBSTRUCTURE
     1 IN2         1 TEMP              0 ****  ****    0 ROOT
