@<TRIPOS>MOLECULE
IN3
   73    75     1     0     0
SMALL
No Charge or Current Charge


@<TRIPOS>ATOM
      1 C1          -3.2540    -3.4340    -8.4280 ca         1 IN3      -0.096000
      2 C2          -3.7450    -3.0740    -7.1610 ca         1 IN3      -0.114500
      3 C3          -3.3510    -1.8600    -6.5720 ca         1 IN3      -0.082500
      4 C4          -2.4640    -0.9980    -7.2460 ca         1 IN3      -0.100300
      5 C5          -1.9730    -1.3650    -8.5150 ca         1 IN3      -0.082500
      6 C6          -2.3670    -2.5790    -9.1040 ca         1 IN3      -0.114500
      7 C7          -2.0370     0.3170    -6.6080 c3         1 IN3       0.211900
      8 O8          -0.8540     0.0810    -5.8260 os         1 IN3      -0.338100
      9 C9          -0.2250     1.0870    -5.1220 ca         1 IN3       0.140100
     10 C10         -0.6930     2.4180    -5.1170 ca         1 IN3      -0.180000
     11 C11          1.6280     1.7260    -3.6390 ca         1 IN3      -0.119600
     12 C12          1.1430     3.0580    -3.6460 ca         1 IN3      -0.127000
     13 C14         -0.0070     3.3960    -4.3800 ca         1 IN3      -0.078000
     14 C17          2.8640     1.3150    -2.8600 c          1 IN3       0.591700
     15 O18          3.2820     0.1640    -2.8630 o          1 IN3      -0.544100
     16 N19          3.5070     2.3100    -2.1340 ns         1 IN3      -0.387500
     17 N20          4.6610     2.0830    -1.3080 ns         1 IN3      -0.362500
     18 C24          0.9250     0.7530    -4.3870 ca         1 IN3      -0.092000
     19 C21          4.6500     1.4590    -0.0750 c          1 IN3       0.651100
     20 O22          5.6790     1.1970     0.5280 o          1 IN3      -0.610100
     21 C8          -6.2990    -1.7370     5.5510 ca         1 IN3      -0.098000
     22 C13         -5.3150    -2.3960     6.3070 ca         1 IN3      -0.116500
     23 C15         -4.0580    -1.7960     6.5030 ca         1 IN3      -0.083500
     24 C16         -3.7790    -0.5320     5.9450 ca         1 IN3      -0.102300
     25 C18         -4.7700     0.1230     5.1860 ca         1 IN3      -0.083500
     26 C19         -6.0260    -0.4780     4.9900 ca         1 IN3      -0.116500
     27 C20         -2.4190     0.1180     6.1580 c3         1 IN3       0.231900
     28 O3          -1.5430    -0.3090     5.1020 os         1 IN3      -0.452100
     29 C22         -0.2680     0.1620     5.1170 c          1 IN3       0.639100
     30 OA           0.2000     0.9320     5.9400 o          1 IN3      -0.550000
     31 CB           1.8140    -0.0750     3.6970 c3         1 IN3       0.053700
     32 CC           2.7340    -1.2370     4.1740 c3         1 IN3      -0.090400
     33 CE           2.8390    -1.4380     5.7130 c3         1 IN3      -0.058700
     34 CF           3.5850    -2.7500     6.0470 c3         1 IN3      -0.090600
     35 CG           3.5090    -0.2380     6.4260 c3         1 IN3      -0.090600
     36 CH           1.9540     0.1580     2.1630 c          1 IN3       0.581100
     37 OI           1.0770    -0.1320     1.3550 o          1 IN3      -0.560100
     38 NJ           3.1510     0.7300     1.7570 ns         1 IN3      -0.359500
     39 NK           3.3930     1.1760     0.4200 ns         1 IN3      -0.363500
     40 NO           0.4000    -0.3460     4.0390 ns         1 IN3      -0.478900
     41 H1          -3.5590    -4.3740    -8.8840 ha         1 IN3       0.114000
     42 H2          -4.4310    -3.7360    -6.6360 ha         1 IN3       0.115500
     43 H3          -3.7340    -1.5900    -5.5900 ha         1 IN3       0.115000
     44 H5          -1.2840    -0.7100    -9.0440 ha         1 IN3       0.115000
     45 H6          -1.9850    -2.8570   -10.0840 ha         1 IN3       0.115500
     46 H71         -2.8500     0.6970    -5.9760 h1         1 IN3       0.041700
     47 H72         -1.8400     1.0580    -7.3940 h1         1 IN3       0.041700
     48 H10         -1.5780     2.7100    -5.6740 ha         1 IN3       0.120000
     49 H12          1.6430     3.8470    -3.0910 ha         1 IN3       0.116000
     50 H14         -0.3680     4.4230    -4.3770 ha         1 IN3       0.117000
     51 HN9          3.1190     3.2490    -2.1440 hn         1 IN3       0.341500
     52 HN0          5.5710     2.2580    -1.7260 hn         1 IN3       0.334500
     53 H24          1.2690    -0.2780    -4.4040 ha         1 IN3       0.150000
     54 H8          -5.5240    -3.3720     6.7400 ha         1 IN3       0.114000
     55 H9          -3.3000    -2.3140     7.0870 ha         1 IN3       0.116500
     56 H13         -4.5660     1.0970     4.7460 ha         1 IN3       0.116500
     57 H17         -6.7870     0.0320     4.4040 ha         1 IN3       0.114000
     58 H7'1        -2.0200    -0.1780     7.1380 h1         1 IN3       0.056700
     59 H7'2        -2.5290     1.2110     6.1550 h1         1 IN3       0.056700
     60 H11          2.1250     0.8600     4.1780 h1         1 IN3       0.076700
     61 H12A         3.7470    -1.0810     3.7810 hc         1 IN3       0.065700
     62 H12B         2.3730    -2.1670     3.7160 hc         1 IN3       0.065700
     63 H18          1.8240    -1.5410     6.1170 hc         1 IN3       0.049700
     64 H15A         3.6180    -2.9120     7.1320 hc         1 IN3       0.035533
     65 H15B         3.0790    -3.6110     5.5950 hc         1 IN3       0.035533
     66 H15C         4.6150    -2.7210     5.6730 hc         1 IN3       0.035533
     67 H16A         4.5250    -0.0770     6.0480 hc         1 IN3       0.035533
     68 H16B         2.9380     0.6850     6.2810 hc         1 IN3       0.035533
     69 H16C         3.5720    -0.4190     7.5060 hc         1 IN3       0.035533
     70 HN1          3.7770     1.0870     2.4760 hn         1 IN3       0.340500
     71 HN2          2.6070     1.5750    -0.0830 hn         1 IN3       0.348500
     72 HN4         -0.1460    -0.9360     3.4240 hn         1 IN3       0.336500
     73 H4          -7.2710    -2.2020     5.4000 ha         1 IN3       0.112000
@<TRIPOS>BOND
     1     1     2 ar  
     2     1     6 ar  
     3     1    41 1   
     4     2     3 ar  
     5     2    42 1   
     6     3     4 ar  
     7     3    43 1   
     8     4     5 ar  
     9     4     7 1   
    10     5     6 ar  
    11     5    44 1   
    12     6    45 1   
    13     7     8 1   
    14     7    46 1   
    15     7    47 1   
    16     8     9 1   
    17     9    10 ar  
    18     9    18 ar  
    19    10    13 ar  
    20    10    48 1   
    21    11    12 ar  
    22    11    14 1   
    23    11    18 ar  
    24    12    13 ar  
    25    12    49 1   
    26    13    50 1   
    27    14    15 2   
    28    14    16 1   
    29    16    17 1   
    30    16    51 1   
    31    17    19 1   
    32    17    52 1   
    33    18    53 1   
    34    19    20 2   
    35    19    39 1   
    36    21    22 ar  
    37    21    26 ar  
    38    21    73 1   
    39    22    23 ar  
    40    22    54 1   
    41    23    24 ar  
    42    23    55 1   
    43    24    25 ar  
    44    24    27 1   
    45    25    26 ar  
    46    25    56 1   
    47    26    57 1   
    48    27    28 1   
    49    27    58 1   
    50    27    59 1   
    51    28    29 1   
    52    29    30 2   
    53    29    40 1   
    54    31    32 1   
    55    31    36 1   
    56    31    40 1   
    57    31    60 1   
    58    32    33 1   
    59    32    61 1   
    60    32    62 1   
    61    33    34 1   
    62    33    35 1   
    63    33    63 1   
    64    34    64 1   
    65    34    65 1   
    66    34    66 1   
    67    35    67 1   
    68    35    68 1   
    69    35    69 1   
    70    36    37 2   
    71    36    38 1   
    72    38    39 1   
    73    38    70 1   
    74    39    71 1   
    75    40    72 1   
@<TRIPOS>SUBSTRUCTURE
     1 IN3         1 TEMP              0 ****  ****    0 ROOT
