@<TRIPOS>MOLECULE
IN3
   73    75     1     0     0
SMALL
bcc


@<TRIPOS>ATOM
      1 C1          -3.4220    -2.5160    -9.2220 ca         1 IN3      -0.114000
      2 C2          -3.8770    -2.3900    -7.9150 ca         1 IN3      -0.132500
      3 C3          -3.4380    -1.3390    -7.1240 ca         1 IN3      -0.100500
      4 C4          -2.5390    -0.4030    -7.6300 ca         1 IN3      -0.100300
      5 C5          -2.0860    -0.5360    -8.9380 ca         1 IN3      -0.100500
      6 C6          -2.5270    -1.5860    -9.7330 ca         1 IN3      -0.132500
      7 C7          -2.0450     0.7120    -6.7590 c3         1 IN3       0.188700
      8 O8          -1.0840     0.1570    -5.8680 os         1 IN3      -0.314900
      9 C9          -0.4930     0.9640    -4.9680 ca         1 IN3       0.140100
     10 C10         -0.7330     2.3320    -4.8560 ca         1 IN3      -0.198000
     11 C11          1.1000     1.1030    -3.1630 ca         1 IN3      -0.119600
     12 C12          0.8640     2.4730    -3.0470 ca         1 IN3      -0.145000
     13 C14         -0.0550     3.0700    -3.8920 ca         1 IN3      -0.096000
     14 C17          2.0520     0.3830    -2.2710 c          1 IN3       0.658700
     15 O18          1.9230    -0.7850    -1.9700 o          1 IN3      -0.544100
     16 N19          3.0900     1.1420    -1.8040 ns         1 IN3      -0.454500
     17 N20          4.0700     0.5640    -1.0520 ns         1 IN3      -0.429500
     18 C24          0.4160     0.3530    -4.1070 ca         1 IN3      -0.110000
     19 C21          3.9520     0.4720     0.3120 c          1 IN3       0.785100
     20 O22          4.6580    -0.2720     0.9650 o          1 IN3      -0.610100
     21 C8          -5.7020    -2.5090     5.8830 ca         1 IN3      -0.116000
     22 C13         -5.2690    -1.5690     6.8080 ca         1 IN3      -0.134500
     23 C15         -4.2980    -0.6410     6.4520 ca         1 IN3      -0.101500
     24 C16         -3.7550    -0.6420     5.1720 ca         1 IN3      -0.102300
     25 C18         -4.1940    -1.5890     4.2500 ca         1 IN3      -0.101500
     26 C19         -5.1620    -2.5180     4.6020 ca         1 IN3      -0.134500
     27 C20         -2.6950     0.3460     4.7920 c3         1 IN3       0.208700
     28 O3          -1.4330    -0.3250     4.9120 os         1 IN3      -0.428900
     29 C22         -0.3510     0.3470     4.5180 c          1 IN3       0.755100
     30 OA          -0.3660     1.4800     4.0810 o          1 IN3      -0.599000
     31 CB           2.0270     0.0940     4.1840 c3         1 IN3       0.053700
     32 CC           3.1470    -0.8810     4.5570 c3         1 IN3      -0.090400
     33 CE           3.3690    -1.0600     6.0610 c3         1 IN3      -0.058700
     34 CF           4.4620    -2.1000     6.2860 c3         1 IN3      -0.090600
     35 CG           3.7230     0.2550     6.7470 c3         1 IN3      -0.090600
     36 CH           1.9940     0.2290     2.6640 c          1 IN3       0.648100
     37 OI           1.3530    -0.5090     1.9470 o          1 IN3      -0.560100
     38 NJ           2.7810     1.2260     2.1930 ns         1 IN3      -0.426500
     39 NK           3.0550     1.3370     0.8700 ns         1 IN3      -0.430500
     40 NO           0.7680    -0.3850     4.6840 ns         1 IN3      -0.545900
     41 H1          -3.7690    -3.3330    -9.8410 ha         1 IN3       0.132000
     42 H2          -4.5780    -3.1110    -7.5120 ha         1 IN3       0.133500
     43 H3          -3.8020    -1.2420    -6.1080 ha         1 IN3       0.133000
     44 H5          -1.3870     0.1870    -9.3410 ha         1 IN3       0.133000
     45 H6          -2.1710    -1.6780   -10.7510 ha         1 IN3       0.133500
     46 H71         -2.8710     1.1550    -6.1930 h1         1 IN3       0.041700
     47 H72         -1.5910     1.5020    -7.3650 h1         1 IN3       0.041700
     48 H10         -1.4370     2.8390    -5.5010 ha         1 IN3       0.138000
     49 H12          1.3630     3.0710    -2.2960 ha         1 IN3       0.134000
     50 H14         -0.2570     4.1290    -3.8030 ha         1 IN3       0.135000
     51 HN9          3.3420     2.0020    -2.2690 hn         1 IN3       0.341500
     52 HN0          4.6130    -0.1660    -1.4950 hn         1 IN3       0.334500
     53 H24          0.5940    -0.7120    -4.1950 ha         1 IN3       0.168000
     54 H8          -5.6870    -1.5560     7.8060 ha         1 IN3       0.132000
     55 H9          -3.9630     0.0920     7.1760 ha         1 IN3       0.134500
     56 H13         -3.7830    -1.5950     3.2470 ha         1 IN3       0.134500
     57 H17         -5.5010    -3.2460     3.8760 ha         1 IN3       0.132000
     58 H7'1        -2.7190     1.2150     5.4530 h1         1 IN3       0.056700
     59 H7'2        -2.8380     0.6930     3.7670 h1         1 IN3       0.056700
     60 H11          2.2430     1.0710     4.6240 h1         1 IN3       0.076700
     61 H12A         4.0750    -0.5300     4.0970 hc         1 IN3       0.065700
     62 H12B         2.9290    -1.8530     4.1030 hc         1 IN3       0.065700
     63 H18          2.4460    -1.4430     6.5090 hc         1 IN3       0.049700
     64 H15A         4.6190    -2.2830     7.3490 hc         1 IN3       0.035533
     65 H15B         4.2070    -3.0530     5.8190 hc         1 IN3       0.035533
     66 H15C         5.4130    -1.7660     5.8630 hc         1 IN3       0.035533
     67 H16A         4.6140     0.7010     6.2980 hc         1 IN3       0.035533
     68 H16B         2.9160     0.9870     6.6860 hc         1 IN3       0.035533
     69 H16C         3.9320     0.0960     7.8060 hc         1 IN3       0.035533
     70 HN1          3.3330     1.7920     2.8200 hn         1 IN3       0.340500
     71 HN2          2.3960     1.8500     0.3050 hn         1 IN3       0.348500
     72 HN4          0.6790    -1.3650     4.9050 hn         1 IN3       0.336500
     73 H4          -6.4590    -3.2320     6.1560 ha         1 IN3       0.130000
@<TRIPOS>BOND
     1     1     2 ar  
     2     1     6 ar  
     3     1    41 1   
     4     2     3 ar  
     5     2    42 1   
     6     3     4 ar  
     7     3    43 1   
     8     4     5 ar  
     9     4     7 1   
    10     5     6 ar  
    11     5    44 1   
    12     6    45 1   
    13     7     8 1   
    14     7    46 1   
    15     7    47 1   
    16     8     9 1   
    17     9    10 ar  
    18     9    18 ar  
    19    10    13 ar  
    20    10    48 1   
    21    11    12 ar  
    22    11    14 1   
    23    11    18 ar  
    24    12    13 ar  
    25    12    49 1   
    26    13    50 1   
    27    14    15 2   
    28    14    16 1   
    29    16    17 1   
    30    16    51 1   
    31    17    19 1   
    32    17    52 1   
    33    18    53 1   
    34    19    20 2   
    35    19    39 1   
    36    21    22 ar  
    37    21    26 ar  
    38    21    73 1   
    39    22    23 ar  
    40    22    54 1   
    41    23    24 ar  
    42    23    55 1   
    43    24    25 ar  
    44    24    27 1   
    45    25    26 ar  
    46    25    56 1   
    47    26    57 1   
    48    27    28 1   
    49    27    58 1   
    50    27    59 1   
    51    28    29 1   
    52    29    30 2   
    53    29    40 1   
    54    31    32 1   
    55    31    36 1   
    56    31    40 1   
    57    31    60 1   
    58    32    33 1   
    59    32    61 1   
    60    32    62 1   
    61    33    34 1   
    62    33    35 1   
    63    33    63 1   
    64    34    64 1   
    65    34    65 1   
    66    34    66 1   
    67    35    67 1   
    68    35    68 1   
    69    35    69 1   
    70    36    37 2   
    71    36    38 1   
    72    38    39 1   
    73    38    70 1   
    74    39    71 1   
    75    40    72 1   
@<TRIPOS>SUBSTRUCTURE
     1 IN3         1 TEMP              0 ****  ****    0 ROOT
