@<TRIPOS>MOLECULE
IN4
   50    51     1     0     0
SMALL
No Charge or Current Charge


@<TRIPOS>ATOM
      1 C1          -1.5630     1.6230     3.8240 ca         1 IN4      -0.092000
      2 C2          -0.7800     2.3500     2.9140 ca         1 IN4      -0.122000
      3 C3           0.0120     1.6810     1.9690 ca         1 IN4      -0.092000
      4 C4           0.0330     0.2730     1.9290 ca         1 IN4      -0.097300
      5 C5          -0.7550    -0.4520     2.8480 ca         1 IN4      -0.045000
      6 C6          -1.5750     0.2070     3.7930 ca         1 IN4      -0.144900
      7 C10          0.9130    -0.4700     0.9180 c3         1 IN4      -0.003400
      8 C9           0.4930    -0.1190    -0.5360 c3         1 IN4      -0.071400
      9 C11          1.1340    -1.0030    -1.6320 c3         1 IN4      -0.035100
     10 C12          0.5780    -0.6840    -3.0130 ca         1 IN4      -0.065300
     11 C20         -2.3790    -0.5910     4.7780 ce         1 IN4       0.659800
     12 N3          -2.1750    -1.8210     5.0120 n2         1 IN4      -0.820100
     13 N4          -3.4380     0.0040     5.3700 nv         1 IN4      -1.081200
     14 C7           1.1300     0.3590    -3.7770 ca         1 IN4      -0.117500
     15 C13          0.6170     0.6570    -5.0510 ca         1 IN4      -0.076000
     16 C15         -0.4720    -0.0720    -5.5850 ca         1 IN4      -0.146900
     17 C16         -0.9890     0.2360    -6.9600 ce         1 IN4       0.659800
     18 C17         -1.0060    -1.1340    -4.8150 ca         1 IN4      -0.076000
     19 C19         -0.4900    -1.4300    -3.5420 ca         1 IN4      -0.117500
     20 N2          -0.3410     0.9150    -7.8130 n2         1 IN4      -0.827100
     21 N1          -2.2500    -0.1400    -7.2660 nv         1 IN4      -1.076200
     22 C14          2.4210    -0.2140     1.1930 c3         1 IN4      -0.134400
     23 C22          2.7930    -0.5620     2.6370 c          1 IN4       0.590100
     24 O3           2.9710    -1.7060     3.0320 o          1 IN4      -0.478000
     25 O4           2.9600     0.5590     3.4090 os         1 IN4      -0.447100
     26 C8           3.3020     0.3820     4.7950 c3         1 IN4       0.151900
     27 H1          -2.1490     2.1700     4.5590 ha         1 IN4       0.117000
     28 H2          -0.7800     3.4370     2.9460 ha         1 IN4       0.114000
     29 H3           0.6170     2.2610     1.2760 ha         1 IN4       0.112000
     30 H5          -0.7340    -1.5390     2.8230 ha         1 IN4       0.142000
     31 H10          0.7470    -1.5490     1.0410 hc         1 IN4       0.073700
     32 H91         -0.5980    -0.2180    -0.6130 hc         1 IN4       0.049200
     33 H92          0.7240     0.9320    -0.7460 hc         1 IN4       0.049200
     34 H111         2.2210    -0.8600    -1.6340 hc         1 IN4       0.049700
     35 H112         0.9630    -2.0590    -1.3910 hc         1 IN4       0.049700
     36 HN3         -2.7010    -2.0740     5.8540 hn         1 IN4       0.369400
     37 HN41        -4.1870    -0.6160     5.6550 hn         1 IN4       0.461500
     38 HN42        -3.7390     0.8730     4.9440 hn         1 IN4       0.461500
     39 H7           1.9600     0.9420    -3.3840 ha         1 IN4       0.114000
     40 H13          1.0650     1.4680    -5.6220 ha         1 IN4       0.127000
     41 H17         -1.8180    -1.7460    -5.2020 ha         1 IN4       0.127000
     42 H19         -0.9220    -2.2460    -2.9660 ha         1 IN4       0.114000
     43 HN2         -0.8060     0.8090    -8.7210 hn         1 IN4       0.370400
     44 HN11        -2.7150     0.4180    -7.9730 hn         1 IN4       0.459500
     45 HN12        -2.8280    -0.3990    -6.4760 hn         1 IN4       0.459500
     46 H141         2.6350     0.8440     1.0060 hc         1 IN4       0.071200
     47 H142         3.0230    -0.8430     0.5290 hc         1 IN4       0.071200
     48 H81          3.4000     1.3550     5.2920 h1         1 IN4       0.048033
     49 H82          2.5240    -0.1900     5.3180 h1         1 IN4       0.048033
     50 H83          4.2560    -0.1510     4.8990 h1         1 IN4       0.048033
@<TRIPOS>BOND
     1     1     2 ar  
     2     1     6 ar  
     3     1    27 1   
     4     2     3 ar  
     5     2    28 1   
     6     3     4 ar  
     7     3    29 1   
     8     4     5 ar  
     9     4     7 1   
    10     5     6 ar  
    11     5    30 1   
    12     6    11 1   
    13     7     8 1   
    14     7    22 1   
    15     7    31 1   
    16     8     9 1   
    17     8    32 1   
    18     8    33 1   
    19     9    10 1   
    20     9    34 1   
    21     9    35 1   
    22    10    14 ar  
    23    10    19 ar  
    24    11    12 2   
    25    11    13 1   
    26    12    36 1   
    27    13    37 1   
    28    13    38 1   
    29    14    15 ar  
    30    14    39 1   
    31    15    16 ar  
    32    15    40 1   
    33    16    17 1   
    34    16    18 ar  
    35    17    20 2   
    36    17    21 1   
    37    18    19 ar  
    38    18    41 1   
    39    19    42 1   
    40    20    43 1   
    41    21    44 1   
    42    21    45 1   
    43    22    23 1   
    44    22    46 1   
    45    22    47 1   
    46    23    24 2   
    47    23    25 1   
    48    25    26 1   
    49    26    48 1   
    50    26    49 1   
    51    26    50 1   
@<TRIPOS>SUBSTRUCTURE
     1 IN4         1 TEMP              0 ****  ****    0 ROOT
