@<TRIPOS>MOLECULE
IN4
   50    51     1     0     0
SMALL
bcc


@<TRIPOS>ATOM
      1 C1          -1.8660     1.5360     3.7170 ca         1 IN4      -0.110000
      2 C2          -1.0670     2.2790     2.8580 ca         1 IN4      -0.140000
      3 C3          -0.2010     1.6450     1.9820 ca         1 IN4      -0.110000
      4 C4          -0.1170     0.2520     1.9520 ca         1 IN4      -0.097300
      5 C5          -0.9130    -0.4790     2.8230 ca         1 IN4      -0.063000
      6 C6          -1.7950     0.1460     3.7030 ca         1 IN4      -0.144900
      7 C10          0.8130    -0.4490     0.9900 c3         1 IN4      -0.003400
      8 C9           0.3940    -0.1650    -0.4580 c3         1 IN4      -0.071400
      9 C11          1.1460    -0.9970    -1.5000 c3         1 IN4      -0.035100
     10 C12          0.6390    -0.7140    -2.8850 ca         1 IN4      -0.065300
     11 C20         -2.6170    -0.6870     4.6250 ce         1 IN4       0.659800
     12 N3          -2.1830    -1.8410     4.9620 n2         1 IN4      -0.820100
     13 N4          -3.7630    -0.0980     5.0750 nv         1 IN4      -0.970800
     14 C7           1.2740     0.2100    -3.7120 ca         1 IN4      -0.135500
     15 C13          0.7710     0.5080    -4.9680 ca         1 IN4      -0.094000
     16 C15         -0.3920    -0.1020    -5.4320 ca         1 IN4      -0.146900
     17 C16         -0.9140     0.2460    -6.7820 ce         1 IN4       0.659800
     18 C17         -1.0260    -1.0330    -4.6120 ca         1 IN4      -0.094000
     19 C19         -0.5150    -1.3340    -3.3590 ca         1 IN4      -0.135500
     20 N2          -0.1000     0.6890    -7.6620 n2         1 IN4      -0.827100
     21 N1          -2.2470     0.0080    -6.9720 nv         1 IN4      -0.965800
     22 C14          2.2680    -0.0420     1.2400 c3         1 IN4      -0.134400
     23 C22          2.7190    -0.3330     2.6450 c          1 IN4       0.639100
     24 O3           2.3730    -1.2900     3.2920 o          1 IN4      -0.527000
     25 O4           3.5790     0.5750     3.0880 os         1 IN4      -0.423900
     26 C8           4.1370     0.3780     4.3870 c3         1 IN4       0.128700
     27 H1          -2.5220     2.0510     4.4070 ha         1 IN4       0.135000
     28 H2          -1.1200     3.3600     2.8780 ha         1 IN4       0.132000
     29 H3           0.4070     2.2450     1.3170 ha         1 IN4       0.130000
     30 H5          -0.8560    -1.5600     2.8170 ha         1 IN4       0.160000
     31 H10          0.7250    -1.5260     1.1600 hc         1 IN4       0.073700
     32 H91         -0.6750    -0.3710    -0.5530 hc         1 IN4       0.049200
     33 H92          0.5250     0.8980    -0.6820 hc         1 IN4       0.049200
     34 H111         2.2170    -0.7850    -1.4550 hc         1 IN4       0.049700
     35 H112         1.0230    -2.0590    -1.2690 hc         1 IN4       0.049700
     36 HN3         -2.8420    -2.3180     5.5720 hn         1 IN4       0.369400
     37 HN41        -4.4080    -0.6710     5.5960 hn         1 IN4       0.406300
     38 HN42        -4.2100     0.5930     4.4960 hn         1 IN4       0.406300
     39 H7           2.1740     0.7050    -3.3690 ha         1 IN4       0.132000
     40 H13          1.2780     1.2270    -5.5980 ha         1 IN4       0.145000
     41 H17         -1.9160    -1.5500    -4.9480 ha         1 IN4       0.145000
     42 H19         -1.0200    -2.0660    -2.7400 ha         1 IN4       0.132000
     43 HN2         -0.5830     0.9190    -8.5260 hn         1 IN4       0.370400
     44 HN11        -2.6650     0.3740    -7.8130 hn         1 IN4       0.404300
     45 HN12        -2.8560     0.0480    -6.1710 hn         1 IN4       0.404300
     46 H141         2.4230     1.0120     1.0010 hc         1 IN4       0.071200
     47 H142         2.9320    -0.6040     0.5760 hc         1 IN4       0.071200
     48 H81          4.8180     1.2080     4.5490 h1         1 IN4       0.048033
     49 H82          3.3660     0.3880     5.1580 h1         1 IN4       0.048033
     50 H83          4.6910    -0.5590     4.4460 h1         1 IN4       0.048033
@<TRIPOS>BOND
     1     1     2 ar  
     2     1     6 ar  
     3     1    27 1   
     4     2     3 ar  
     5     2    28 1   
     6     3     4 ar  
     7     3    29 1   
     8     4     5 ar  
     9     4     7 1   
    10     5     6 ar  
    11     5    30 1   
    12     6    11 1   
    13     7     8 1   
    14     7    22 1   
    15     7    31 1   
    16     8     9 1   
    17     8    32 1   
    18     8    33 1   
    19     9    10 1   
    20     9    34 1   
    21     9    35 1   
    22    10    14 ar  
    23    10    19 ar  
    24    11    12 2   
    25    11    13 1   
    26    12    36 1   
    27    13    37 1   
    28    13    38 1   
    29    14    15 ar  
    30    14    39 1   
    31    15    16 ar  
    32    15    40 1   
    33    16    17 1   
    34    16    18 ar  
    35    17    20 2   
    36    17    21 1   
    37    18    19 ar  
    38    18    41 1   
    39    19    42 1   
    40    20    43 1   
    41    21    44 1   
    42    21    45 1   
    43    22    23 1   
    44    22    46 1   
    45    22    47 1   
    46    23    24 2   
    47    23    25 1   
    48    25    26 1   
    49    26    48 1   
    50    26    49 1   
    51    26    50 1   
@<TRIPOS>SUBSTRUCTURE
     1 IN4         1 TEMP              0 ****  ****    0 ROOT
