@<TRIPOS>MOLECULE
IN6
   82    84     1     0     0
SMALL
No Charge or Current Charge


@<TRIPOS>ATOM
      1 C1           0.6190     1.9390   -11.9480 ca         1 IN6      -0.097000
      2 C2          -0.7200     1.8580   -11.5280 ca         1 IN6      -0.115000
      3 C3          -1.0390     1.9870   -10.1650 ca         1 IN6      -0.084000
      4 C4          -0.0220     2.2000    -9.2130 ca         1 IN6      -0.104300
      5 C5           1.3190     2.2780    -9.6400 ca         1 IN6      -0.084000
      6 C6           1.6380     2.1490   -11.0030 ca         1 IN6      -0.115000
      7 C7          -0.3680     2.3410    -7.7370 c3         1 IN6       0.231900
      8 O8          -0.3430     1.0340    -7.1400 os         1 IN6      -0.456100
      9 C9          -0.6270     0.9450    -5.8150 c          1 IN6       0.636100
     10 O10         -0.8960     1.8750    -5.0730 o          1 IN6      -0.532000
     11 C11         -0.7910    -0.8480    -4.0650 c3         1 IN6       0.099400
     12 C12         -1.1560    -2.3560    -4.0700 c3         1 IN6      -0.086400
     13 C14         -2.3630    -2.7610    -4.9670 c3         1 IN6      -0.058700
     14 C15         -2.5610    -4.2940    -4.9600 c3         1 IN6      -0.091100
     15 C16         -3.6720    -2.0380    -4.5720 c3         1 IN6      -0.091100
     16 C17          0.3480    -0.5460    -3.1070 cc         1 IN6       0.417700
     17 S18          2.0070    -0.7720    -3.5980 ss         1 IN6       0.013600
     18 N19          0.1570    -0.1250    -1.8610 nd         1 IN6      -0.639000
     19 C20          1.3880     0.0550    -1.2180 cd         1 IN6       0.220500
     20 N24         -0.5440    -0.3610    -5.4340 ns         1 IN6      -0.514900
     21 C42          2.4800    -0.2460    -2.0080 cc         1 IN6      -0.205000
     22 C21          1.5880     0.5270     0.2000 c          1 IN6       0.538600
     23 O22          2.6780     0.6810     0.7470 o          1 IN6      -0.590100
     24 C8          -0.3230    -5.4470    10.3820 ca         1 IN6      -0.098000
     25 C10          0.4810    -4.3510    10.7380 ca         1 IN6      -0.116500
     26 C13          0.2230    -3.0810    10.1910 ca         1 IN6      -0.083500
     27 C18         -0.8420    -2.9000     9.2860 ca         1 IN6      -0.102300
     28 C19         -1.6430    -4.0040     8.9310 ca         1 IN6      -0.083500
     29 C22         -1.3840    -5.2730     9.4780 ca         1 IN6      -0.116500
     30 C23         -1.1220    -1.5250     8.6950 c3         1 IN6       0.231900
     31 O3          -0.3550    -1.3860     7.4890 os         1 IN6      -0.452100
     32 C24         -0.4620    -0.2140     6.8090 c          1 IN6       0.639100
     33 OA          -1.1680     0.7320     7.1220 o          1 IN6      -0.549000
     34 CB           0.4920     0.8000     4.6950 c3         1 IN6       0.053700
     35 CC           1.7950     1.6110     4.9590 c3         1 IN6      -0.089400
     36 CE           1.8330     2.4360     6.2770 c3         1 IN6      -0.058700
     37 CF           3.2490     3.0010     6.5310 c3         1 IN6      -0.090600
     38 CG           0.7840     3.5730     6.2980 c3         1 IN6      -0.090600
     39 CH           0.4910     0.1960     3.2590 c          1 IN6       0.589100
     40 OI           0.6490    -1.0000     3.0350 o          1 IN6      -0.567100
     41 NJ           0.2800     1.1110     2.2360 ns         1 IN6      -0.364500
     42 NK           0.3880     0.7870     0.8460 ns         1 IN6      -0.354500
     43 NO           0.3290    -0.2760     5.6980 ns         1 IN6      -0.480900
     44 H1           0.8660     1.8390   -13.0020 ha         1 IN6       0.114000
     45 H2          -1.5090     1.6940   -12.2580 ha         1 IN6       0.115000
     46 H3          -2.0780     1.9200    -9.8480 ha         1 IN6       0.115000
     47 H5           2.1150     2.4380    -8.9150 ha         1 IN6       0.115000
     48 H6           2.6750     2.2100   -11.3270 ha         1 IN6       0.115000
     49 H71         -1.3620     2.7970    -7.6340 h1         1 IN6       0.058200
     50 H72          0.3600     3.0050    -7.2510 h1         1 IN6       0.058200
     51 H11         -1.6600    -0.3000    -3.6780 h1         1 IN6       0.100700
     52 H121        -0.2730    -2.9250    -4.3900 hc         1 IN6       0.059700
     53 H122        -1.3630    -2.6670    -3.0380 hc         1 IN6       0.059700
     54 H14         -2.1320    -2.4790    -6.0020 hc         1 IN6       0.043700
     55 H151        -1.6500    -4.8050    -5.2930 hc         1 IN6       0.037033
     56 H152        -2.8070    -4.6520    -3.9520 hc         1 IN6       0.037033
     57 H153        -3.3750    -4.5830    -5.6350 hc         1 IN6       0.037033
     58 H161        -3.9250    -2.2300    -3.5220 hc         1 IN6       0.037033
     59 H162        -3.5860    -0.9540    -4.7150 hc         1 IN6       0.037033
     60 H163        -4.5070    -2.3840    -5.1930 hc         1 IN6       0.037033
     61 HN4         -0.3100    -1.0210    -6.1640 hn         1 IN6       0.336500
     62 H42          3.5300    -0.1920    -1.7520 h4         1 IN6       0.180000
     63 H9           1.3040    -4.4850    11.4360 ha         1 IN6       0.114000
     64 H10          0.8520    -2.2380    10.4700 ha         1 IN6       0.116000
     65 H13         -2.4660    -3.8780     8.2300 ha         1 IN6       0.116000
     66 H17         -2.0060    -6.1210     9.2000 ha         1 IN6       0.114000
     67 H7'1        -0.8470    -0.7500     9.4230 h1         1 IN6       0.057200
     68 H7'2        -2.1960    -1.4260     8.4870 h1         1 IN6       0.057200
     69 H18         -0.3750     1.4710     4.7460 h1         1 IN6       0.077700
     70 H12A         1.9680     2.2980     4.1210 hc         1 IN6       0.064200
     71 H12B         2.6390     0.9090     4.9510 hc         1 IN6       0.064200
     72 H19          1.6090     1.7600     7.1120 hc         1 IN6       0.048700
     73 H15A         3.2850     3.5440     7.4840 hc         1 IN6       0.035700
     74 H15B         3.9880     2.1920     6.5780 hc         1 IN6       0.035700
     75 H15C         3.5440     3.6910     5.7320 hc         1 IN6       0.035700
     76 H16A         0.9490     4.2720     5.4700 hc         1 IN6       0.035700
     77 H16B        -0.2360     3.1810     6.2180 hc         1 IN6       0.035700
     78 H16C         0.8460     4.1370     7.2370 hc         1 IN6       0.035700
     79 HN9          0.1910     2.0960     2.4740 hn         1 IN6       0.336500
     80 HN0         -0.4700     0.5870     0.3320 hn         1 IN6       0.367500
     81 HN2          0.8180    -1.1520     5.5570 hn         1 IN6       0.337500
     82 H8          -0.1230    -6.4300    10.8040 ha         1 IN6       0.113000
@<TRIPOS>BOND
     1     1     2 ar  
     2     1     6 ar  
     3     1    44 1   
     4     2     3 ar  
     5     2    45 1   
     6     3     4 ar  
     7     3    46 1   
     8     4     5 ar  
     9     4     7 1   
    10     5     6 ar  
    11     5    47 1   
    12     6    48 1   
    13     7     8 1   
    14     7    49 1   
    15     7    50 1   
    16     8     9 1   
    17     9    10 2   
    18     9    20 1   
    19    11    12 1   
    20    11    16 1   
    21    11    20 1   
    22    11    51 1   
    23    12    13 1   
    24    12    52 1   
    25    12    53 1   
    26    13    14 1   
    27    13    15 1   
    28    13    54 1   
    29    14    55 1   
    30    14    56 1   
    31    14    57 1   
    32    15    58 1   
    33    15    59 1   
    34    15    60 1   
    35    16    17 1   
    36    16    18 2   
    37    17    21 1   
    38    18    19 1   
    39    19    21 2   
    40    19    22 1   
    41    20    61 1   
    42    21    62 1   
    43    22    23 2   
    44    22    42 1   
    45    24    25 ar  
    46    24    29 ar  
    47    24    82 1   
    48    25    26 ar  
    49    25    63 1   
    50    26    27 ar  
    51    26    64 1   
    52    27    28 ar  
    53    27    30 1   
    54    28    29 ar  
    55    28    65 1   
    56    29    66 1   
    57    30    31 1   
    58    30    67 1   
    59    30    68 1   
    60    31    32 1   
    61    32    33 2   
    62    32    43 1   
    63    34    35 1   
    64    34    39 1   
    65    34    43 1   
    66    34    69 1   
    67    35    36 1   
    68    35    70 1   
    69    35    71 1   
    70    36    37 1   
    71    36    38 1   
    72    36    72 1   
    73    37    73 1   
    74    37    74 1   
    75    37    75 1   
    76    38    76 1   
    77    38    77 1   
    78    38    78 1   
    79    39    40 2   
    80    39    41 1   
    81    41    42 1   
    82    41    79 1   
    83    42    80 1   
    84    43    81 1   
@<TRIPOS>SUBSTRUCTURE
     1 IN6         1 TEMP              0 ****  ****    0 ROOT
