@<TRIPOS>MOLECULE
IN6
   82    84     1     0     0
SMALL
bcc


@<TRIPOS>ATOM
      1 C1           0.5210     1.2220   -11.6550 ca         1 IN6      -0.115000
      2 C2          -0.8300     1.2300   -11.3340 ca         1 IN6      -0.133000
      3 C3          -1.2340     1.5170   -10.0370 ca         1 IN6      -0.102000
      4 C4          -0.2950     1.8040    -9.0510 ca         1 IN6      -0.104300
      5 C5           1.0580     1.7940    -9.3810 ca         1 IN6      -0.102000
      6 C6           1.4660     1.5040   -10.6750 ca         1 IN6      -0.133000
      7 C7          -0.7260     2.0980    -7.6470 c3         1 IN6       0.208700
      8 O8          -0.5730     0.8840    -6.8990 os         1 IN6      -0.432900
      9 C9          -0.8310     0.9430    -5.5930 c          1 IN6       0.752100
     10 O10         -1.1920     1.9400    -5.0050 o          1 IN6      -0.581000
     11 C11         -0.8860    -0.4600    -3.6010 c3         1 IN6       0.099400
     12 C12         -1.0350    -1.9540    -3.3040 c3         1 IN6      -0.086400
     13 C14         -2.2140    -2.6340    -4.0020 c3         1 IN6      -0.058700
     14 C15         -2.1850    -4.1300    -3.7010 c3         1 IN6      -0.091100
     15 C16         -3.5540    -2.0340    -3.5890 c3         1 IN6      -0.091100
     16 C17          0.2200     0.1230    -2.7670 cc         1 IN6       0.417700
     17 S18          1.7960     0.3800    -3.4340 ss         1 IN6      -0.131300
     18 N19          0.1230     0.4140    -1.5150 nd         1 IN6      -0.639000
     19 C20          1.3140     0.8610    -1.0150 cd         1 IN6       0.285800
     20 N24         -0.6280    -0.2560    -5.0040 ns         1 IN6      -0.581900
     21 C42          2.3400     0.9100    -1.9070 cc         1 IN6      -0.143400
     22 C21          1.4410     1.2630     0.4030 c          1 IN6       0.605600
     23 O22          2.4900     1.6430     0.8850 o          1 IN6      -0.590100
     24 C8          -0.8740    -5.4110     9.6200 ca         1 IN6      -0.116000
     25 C10         -1.2850    -4.1820    10.1200 ca         1 IN6      -0.134500
     26 C13         -1.5840    -3.1430     9.2500 ca         1 IN6      -0.101500
     27 C18         -1.4780    -3.3200     7.8730 ca         1 IN6      -0.102300
     28 C19         -1.0660    -4.5550     7.3800 ca         1 IN6      -0.101500
     29 C22         -0.7660    -5.5960     8.2470 ca         1 IN6      -0.134500
     30 C23         -1.7730    -2.1890     6.9370 c3         1 IN6       0.208700
     31 O3          -0.5350    -1.5020     6.7090 os         1 IN6      -0.428900
     32 C24         -0.5520    -0.5020     5.8280 c          1 IN6       0.755100
     33 OA          -1.5370    -0.1440     5.2130 o          1 IN6      -0.598000
     34 CB           0.8870     1.0970     4.7320 c3         1 IN6       0.053700
     35 CC           2.3020     1.6650     4.8700 c3         1 IN6      -0.089400
     36 CE           2.6080     2.3110     6.2240 c3         1 IN6      -0.058700
     37 CF           4.0470     2.8180     6.2240 c3         1 IN6      -0.090600
     38 CG           1.6350     3.4360     6.5590 c3         1 IN6      -0.090600
     39 CH           0.7290     0.5330     3.3230 c          1 IN6       0.656100
     40 OI           1.0260    -0.6030     3.0270 o          1 IN6      -0.567100
     41 NJ           0.2610     1.4400     2.4300 ns         1 IN6      -0.431500
     42 NK           0.2820     1.1800     1.0990 ns         1 IN6      -0.421500
     43 NO           0.6590     0.0770     5.7170 ns         1 IN6      -0.547900
     44 H1           0.8370     1.0000   -12.6660 ha         1 IN6       0.132000
     45 H2          -1.5700     1.0140   -12.0940 ha         1 IN6       0.133000
     46 H3          -2.2890     1.5240    -9.7900 ha         1 IN6       0.133000
     47 H5           1.7980     2.0200    -8.6220 ha         1 IN6       0.133000
     48 H6           2.5190     1.5020   -10.9210 ha         1 IN6       0.133000
     49 H71         -1.7680     2.4250    -7.6200 h1         1 IN6       0.058200
     50 H72         -0.1100     2.8850    -7.2090 h1         1 IN6       0.058200
     51 H11         -1.8040     0.0590    -3.3130 h1         1 IN6       0.100700
     52 H121        -0.1020    -2.4580    -3.5780 hc         1 IN6       0.059700
     53 H122        -1.1410    -2.0690    -2.2220 hc         1 IN6       0.059700
     54 H14         -2.1040    -2.5110    -5.0850 hc         1 IN6       0.043700
     55 H151        -1.2410    -4.5830    -4.0100 hc         1 IN6       0.037033
     56 H152        -2.3080    -4.3140    -2.6310 hc         1 IN6       0.037033
     57 H153        -2.9910    -4.6490    -4.2210 hc         1 IN6       0.037033
     58 H161        -3.6940    -2.1060    -2.5070 hc         1 IN6       0.037033
     59 H162        -3.6480    -0.9830    -3.8660 hc         1 IN6       0.037033
     60 H163        -4.3780    -2.5650    -4.0670 hc         1 IN6       0.037033
     61 HN4         -0.3500    -1.0440    -5.5700 hn         1 IN6       0.336500
     62 H42          3.3550     1.2320    -1.7410 h4         1 IN6       0.198000
     63 H9          -1.3740    -4.0330    11.1880 ha         1 IN6       0.132000
     64 H10         -1.9090    -2.1870     9.6440 ha         1 IN6       0.134000
     65 H13         -0.9850    -4.7060     6.3100 ha         1 IN6       0.134000
     66 H17         -0.4500    -6.5530     7.8520 ha         1 IN6       0.132000
     67 H7'1        -2.5030    -1.5050     7.3750 h1         1 IN6       0.057200
     68 H7'2        -2.1760    -2.5610     5.9920 h1         1 IN6       0.057200
     69 H18          0.1630     1.9050     4.8750 h1         1 IN6       0.077700
     70 H12A         2.4460     2.4080     4.0800 hc         1 IN6       0.064200
     71 H12B         3.0250     0.8660     4.6790 hc         1 IN6       0.064200
     72 H19          2.5260     1.5460     7.0040 hc         1 IN6       0.048700
     73 H15A         4.3190     3.2250     7.1990 hc         1 IN6       0.035700
     74 H15B         4.7510     2.0180     5.9890 hc         1 IN6       0.035700
     75 H15C         4.1850     3.6090     5.4830 hc         1 IN6       0.035700
     76 H16A         1.6240     4.1930     5.7710 hc         1 IN6       0.035700
     77 H16B         0.6140     3.0750     6.6910 hc         1 IN6       0.035700
     78 H16C         1.9220     3.9290     7.4890 hc         1 IN6       0.035700
     79 HN9          0.0750     2.3930     2.7070 hn         1 IN6       0.336500
     80 HN0         -0.5490     0.7920     0.6760 hn         1 IN6       0.367500
     81 HN2          1.4540    -0.3630     6.1540 hn         1 IN6       0.337500
     82 H8          -0.6430    -6.2230    10.2970 ha         1 IN6       0.131000
@<TRIPOS>BOND
     1     1     2 ar  
     2     1     6 ar  
     3     1    44 1   
     4     2     3 ar  
     5     2    45 1   
     6     3     4 ar  
     7     3    46 1   
     8     4     5 ar  
     9     4     7 1   
    10     5     6 ar  
    11     5    47 1   
    12     6    48 1   
    13     7     8 1   
    14     7    49 1   
    15     7    50 1   
    16     8     9 1   
    17     9    10 2   
    18     9    20 1   
    19    11    12 1   
    20    11    16 1   
    21    11    20 1   
    22    11    51 1   
    23    12    13 1   
    24    12    52 1   
    25    12    53 1   
    26    13    14 1   
    27    13    15 1   
    28    13    54 1   
    29    14    55 1   
    30    14    56 1   
    31    14    57 1   
    32    15    58 1   
    33    15    59 1   
    34    15    60 1   
    35    16    17 1   
    36    16    18 2   
    37    17    21 1   
    38    18    19 1   
    39    19    21 2   
    40    19    22 1   
    41    20    61 1   
    42    21    62 1   
    43    22    23 2   
    44    22    42 1   
    45    24    25 ar  
    46    24    29 ar  
    47    24    82 1   
    48    25    26 ar  
    49    25    63 1   
    50    26    27 ar  
    51    26    64 1   
    52    27    28 ar  
    53    27    30 1   
    54    28    29 ar  
    55    28    65 1   
    56    29    66 1   
    57    30    31 1   
    58    30    67 1   
    59    30    68 1   
    60    31    32 1   
    61    32    33 2   
    62    32    43 1   
    63    34    35 1   
    64    34    39 1   
    65    34    43 1   
    66    34    69 1   
    67    35    36 1   
    68    35    70 1   
    69    35    71 1   
    70    36    37 1   
    71    36    38 1   
    72    36    72 1   
    73    37    73 1   
    74    37    74 1   
    75    37    75 1   
    76    38    76 1   
    77    38    77 1   
    78    38    78 1   
    79    39    40 2   
    80    39    41 1   
    81    41    42 1   
    82    41    79 1   
    83    42    80 1   
    84    43    81 1   
@<TRIPOS>SUBSTRUCTURE
     1 IN6         1 TEMP              0 ****  ****    0 ROOT
