@<TRIPOS>MOLECULE
IN7
   47    49     1     0     0
SMALL
No Charge or Current Charge


@<TRIPOS>ATOM
      1 C1          -0.2800     0.3420    -0.2110 ca         1 IN7       0.358000
      2 C2          -0.7800    -0.8140     0.4120 ca         1 IN7      -0.205500
      3 C3          -1.0800    -0.8180     1.7840 ca         1 IN7       0.030500
      4 C7           0.6490    -1.0540    -3.5920 c6         1 IN7      -0.078900
      5 C6          -0.0800     1.5020     0.5600 ca         1 IN7      -0.205500
      6 O2          -2.3430    -0.6150     4.5540 o          1 IN7      -0.573000
      7 C4          -0.8780     0.3460     2.5480 ca         1 IN7      -0.340500
      8 C5          -0.3760     1.5090     1.9330 ca         1 IN7       0.030500
      9 O3           1.9700    -1.5660     7.6220 o          1 IN7      -0.719000
     10 S           -1.2610     0.3390     4.2990 sy         1 IN7       1.139600
     11 C11          0.5930     0.2090    -4.4910 c6         1 IN7      -0.018400
     12 C13         -0.4220     1.2170    -3.8930 c6         1 IN7      -0.078900
     13 C15         -0.0840     1.5550    -2.4200 c6         1 IN7       0.211300
     14 N1           0.0140     0.3190    -1.5940 nh         1 IN7      -0.809400
     15 C18          0.9780    -0.6860    -2.1250 c6         1 IN7       0.211300
     16 C10         -0.2860    -0.7570    -8.6520 ca         1 IN7      -0.116000
     17 C12          0.9270    -0.1380    -8.3110 ca         1 IN7      -0.112000
     18 C14          1.2070     0.1720    -6.9680 ca         1 IN7      -0.105500
     19 C16          0.2760    -0.1350    -5.9550 ca         1 IN7      -0.069300
     20 C17         -0.9410    -0.7570    -6.3070 ca         1 IN7      -0.105500
     21 C19         -1.2200    -1.0670    -7.6490 ca         1 IN7      -0.112000
     22 O1          -1.2680     1.7130     4.8090 o          1 IN7      -0.573000
     23 N2           0.1290    -0.3790     4.8740 n7         1 IN7      -0.828300
     24 C8           0.5060    -0.1750     6.3120 c3         1 IN7       0.031800
     25 C9           1.9080    -0.7520     6.7090 c          1 IN7       0.719000
     26 O4           2.8840    -0.3870     6.0650 o          1 IN7      -0.719000
     27 H2          -0.9490    -1.7130    -0.1720 ha         1 IN7       0.105500
     28 H3          -1.4680    -1.7250     2.2460 ha         1 IN7       0.130500
     29 H71         -0.3110    -1.5870    -3.6210 hc         1 IN7       0.048950
     30 H72          1.4060    -1.7520    -3.9730 hc         1 IN7       0.048950
     31 H6           0.3170     2.4030     0.1040 ha         1 IN7       0.105500
     32 H5          -0.2110     2.4190     2.5090 ha         1 IN7       0.130500
     33 H11          1.5850     0.6810    -4.4540 hc         1 IN7       0.051700
     34 H131        -1.4400     0.8070    -3.9410 hc         1 IN7       0.048950
     35 H132        -0.4290     2.1400    -4.4880 hc         1 IN7       0.048950
     36 H151        -0.8700     2.2180    -2.0270 h1         1 IN7       0.044200
     37 H152         0.8650     2.1100    -2.3820 h1         1 IN7       0.044200
     38 H181         2.0010    -0.2830    -2.0730 h1         1 IN7       0.044200
     39 H182         0.9620    -1.6040    -1.5200 h1         1 IN7       0.044200
     40 H10         -0.5030    -0.9970    -9.6910 ha         1 IN7       0.107000
     41 H12          1.6510     0.1020    -9.0860 ha         1 IN7       0.108500
     42 H14          2.1510     0.6520    -6.7190 ha         1 IN7       0.113500
     43 H17         -1.6740    -1.0030    -5.5420 ha         1 IN7       0.113500
     44 H19         -2.1600    -1.5460    -7.9120 ha         1 IN7       0.108500
     45 HN2          0.8360     0.0340     4.2660 hn         1 IN7       0.514000
     46 H81         -0.2460    -0.6350     6.9660 h1         1 IN7       0.039200
     47 H82          0.5350     0.8960     6.5540 h1         1 IN7       0.039200
@<TRIPOS>BOND
     1     1     2 ar  
     2     1     5 ar  
     3     1    14 1   
     4     2     3 ar  
     5     2    27 1   
     6     3     7 ar  
     7     3    28 1   
     8     4    11 1   
     9     4    15 1   
    10     4    29 1   
    11     4    30 1   
    12     5     8 ar  
    13     5    31 1   
    14     6    10 2   
    15     7     8 ar  
    16     7    10 1   
    17     8    32 1   
    18     9    25 1   
    19    10    22 2   
    20    10    23 1   
    21    11    12 1   
    22    11    19 1   
    23    11    33 1   
    24    12    13 1   
    25    12    34 1   
    26    12    35 1   
    27    13    14 1   
    28    13    36 1   
    29    13    37 1   
    30    14    15 1   
    31    15    38 1   
    32    15    39 1   
    33    16    17 ar  
    34    16    21 ar  
    35    16    40 1   
    36    17    18 ar  
    37    17    41 1   
    38    18    19 ar  
    39    18    42 1   
    40    19    20 ar  
    41    20    21 ar  
    42    20    43 1   
    43    21    44 1   
    44    23    24 1   
    45    23    45 1   
    46    24    25 1   
    47    24    46 1   
    48    24    47 1   
    49    25    26 1   
@<TRIPOS>SUBSTRUCTURE
     1 IN7         1 TEMP              0 ****  ****    0 ROOT
