@<TRIPOS>MOLECULE
IN7
   47    49     1     0     0
SMALL
abcg2


@<TRIPOS>ATOM
      1 C1          -0.4660     0.0750    -0.0570 ca         1 IN7       0.358000
      2 C2          -0.7710    -1.1290     0.6150 ca         1 IN7      -0.205500
      3 C3          -1.1340    -1.1440     1.9420 ca         1 IN7       0.030500
      4 C7           0.3820    -1.1930    -3.4390 c6         1 IN7      -0.078900
      5 C6          -0.5490     1.2600     0.6990 ca         1 IN7      -0.205500
      6 O2          -2.5000    -1.1270     4.6150 o          1 IN7      -0.573000
      7 C4          -1.2140     0.0450     2.6640 ca         1 IN7      -0.340500
      8 C5          -0.9230     1.2440     2.0300 ca         1 IN7       0.030500
      9 O3           3.2500     0.4640     5.3170 o          1 IN7      -0.719000
     10 S           -1.6100     0.0020     4.3780 sy         1 IN7       1.139600
     11 C11          0.6820     0.0990    -4.1960 c6         1 IN7      -0.018400
     12 C13         -0.1380     1.2250    -3.5710 c6         1 IN7      -0.078900
     13 C15          0.0960     1.3430    -2.0710 c6         1 IN7       0.211300
     14 N1          -0.1390     0.0800    -1.3920 nh         1 IN7      -0.809400
     15 C18          0.6330    -1.0240    -1.9510 c6         1 IN7       0.211300
     16 C10          0.0130    -0.2600    -8.4400 ca         1 IN7      -0.116000
     17 C12          1.2710     0.0660    -7.9530 ca         1 IN7      -0.112000
     18 C14          1.4810     0.1790    -6.5840 ca         1 IN7      -0.105500
     19 C16          0.4440    -0.0300    -5.6780 ca         1 IN7      -0.069300
     20 C17         -0.8160    -0.3580    -6.1810 ca         1 IN7      -0.105500
     21 C19         -1.0300    -0.4720    -7.5470 ca         1 IN7      -0.112000
     22 O1          -2.0270     1.3430     4.7690 o          1 IN7      -0.573000
     23 N2          -0.2330    -0.3270     5.1990 n7         1 IN7      -0.828300
     24 C8           0.9060     0.5700     5.0830 c3         1 IN7       0.031800
     25 C9           2.2220    -0.2250     5.2510 c          1 IN7       0.719000
     26 O4           2.1250    -1.4660     5.2800 o          1 IN7      -0.719000
     27 H2          -0.7540    -2.0730     0.0910 ha         1 IN7       0.105500
     28 H3          -1.3710    -2.0930     2.4050 ha         1 IN7       0.130500
     29 H71         -0.6580    -1.4920    -3.5990 hc         1 IN7       0.048950
     30 H72          1.0090    -2.0080    -3.8080 hc         1 IN7       0.048950
     31 H6          -0.3060     2.2180     0.2640 ha         1 IN7       0.105500
     32 H5          -0.9770     2.1810     2.5670 ha         1 IN7       0.130500
     33 H11          1.7430     0.3340    -4.0480 hc         1 IN7       0.051700
     34 H131        -1.2030     1.0530    -3.7530 hc         1 IN7       0.048950
     35 H132         0.1150     2.1830    -4.0310 hc         1 IN7       0.048950
     36 H151        -0.5910     2.0950    -1.6890 h1         1 IN7       0.044200
     37 H152         1.1150     1.7060    -1.8780 h1         1 IN7       0.044200
     38 H181         1.7050    -0.8480    -1.7790 h1         1 IN7       0.044200
     39 H182         0.3840    -1.9540    -1.4500 h1         1 IN7       0.044200
     40 H10         -0.1540    -0.3480    -9.5060 ha         1 IN7       0.107000
     41 H12          2.0920     0.2340    -8.6380 ha         1 IN7       0.108500
     42 H14          2.4660     0.4370    -6.2130 ha         1 IN7       0.113500
     43 H17         -1.6430    -0.5260    -5.5010 ha         1 IN7       0.113500
     44 H19         -2.0150    -0.7280    -7.9160 ha         1 IN7       0.108500
     45 HN2          0.0760    -1.2950     5.1170 hn         1 IN7       0.514000
     46 H81          0.8510     1.3580     5.8360 h1         1 IN7       0.039200
     47 H82          0.9500     1.0640     4.1040 h1         1 IN7       0.039200
@<TRIPOS>BOND
     1     1     2 ar  
     2     1     5 ar  
     3     1    14 1   
     4     2     3 ar  
     5     2    27 1   
     6     3     7 ar  
     7     3    28 1   
     8     4    11 1   
     9     4    15 1   
    10     4    29 1   
    11     4    30 1   
    12     5     8 ar  
    13     5    31 1   
    14     6    10 2   
    15     7     8 ar  
    16     7    10 1   
    17     8    32 1   
    18     9    25 1   
    19    10    22 2   
    20    10    23 1   
    21    11    12 1   
    22    11    19 1   
    23    11    33 1   
    24    12    13 1   
    25    12    34 1   
    26    12    35 1   
    27    13    14 1   
    28    13    36 1   
    29    13    37 1   
    30    14    15 1   
    31    15    38 1   
    32    15    39 1   
    33    16    17 ar  
    34    16    21 ar  
    35    16    40 1   
    36    17    18 ar  
    37    17    41 1   
    38    18    19 ar  
    39    18    42 1   
    40    19    20 ar  
    41    20    21 ar  
    42    20    43 1   
    43    21    44 1   
    44    23    24 1   
    45    23    45 1   
    46    24    25 1   
    47    24    46 1   
    48    24    47 1   
    49    25    26 1   
@<TRIPOS>SUBSTRUCTURE
     1 IN7         1 TEMP              0 ****  ****    0 ROOT
