@<TRIPOS>MOLECULE
IN8
   46    48     1     0     0
SMALL
abcg2


@<TRIPOS>ATOM
      1 C1          29.2350    45.3000    48.5920 cc         1 IN8       0.514300
      2 C2          31.0050    46.8740    48.6990 cc         1 IN8       0.471700
      3 C3          26.8400    45.0940    48.2430 c          1 IN8       0.611100
      4 C7          26.9400    44.5620    44.8090 ca         1 IN8      -0.090000
      5 C8          26.9770    45.5040    43.7850 ca         1 IN8      -0.104500
      6 C9          25.8480    46.2640    43.4980 ca         1 IN8      -0.095000
      7 C10         24.6860    46.0810    44.2430 ca         1 IN8      -0.104500
      8 C11         24.6550    45.1450    45.2700 ca         1 IN8      -0.090000
      9 C12         24.7990    41.1810    47.0980 c          1 IN8       0.630100
     10 C13         23.5540    39.2490    47.6900 c3         1 IN8       0.229900
     11 C14         23.6600    39.4170    51.9880 ca         1 IN8      -0.101000
     12 C15         22.9870    40.4010    51.2690 ca         1 IN8      -0.111000
     13 C16         22.9540    40.3530    49.8800 ca         1 IN8      -0.091500
     14 C19         24.3060    38.3890    51.3080 ca         1 IN8      -0.111000
     15 S1          29.2850    47.0320    48.4280 ss         1 IN8      -0.146800
     16 N1          30.3860    44.7420    48.8190 nd         1 IN8      -0.383000
     17 N2          31.4100    45.6540    48.8810 nd         1 IN8      -0.314000
     18 N3          28.0800    44.5620    48.4870 ns         1 IN8      -0.473400
     19 S2          32.0340    48.2910    48.7120 sh         1 IN8      -0.334100
     20 O1          26.6830    46.3010    48.1340 o          1 IN8      -0.560100
     21 C4          25.7310    44.0890    48.0810 c3         1 IN8      -0.180400
     22 C5          25.7850    43.3820    46.6990 c3         1 IN8       0.181000
     23 C6          25.7800    44.3730    45.5570 ca         1 IN8      -0.109300
     24 O2          23.6030    40.5490    47.0660 os         1 IN8      -0.461100
     25 O3          25.8290    40.6730    47.5090 o          1 IN8      -0.533000
     26 N4          24.6910    42.4300    46.5930 ns         1 IN8      -0.490900
     27 C17         23.6030    39.3270    49.1930 ca         1 IN8      -0.120300
     28 C18         24.2810    38.3490    49.9170 ca         1 IN8      -0.091500
     29 H7          27.8200    43.9700    45.0300 ha         1 IN8       0.111500
     30 H8          27.8850    45.6410    43.2120 ha         1 IN8       0.117500
     31 H9          25.8730    46.9960    42.7010 ha         1 IN8       0.117000
     32 H10         23.8050    46.6720    44.0270 ha         1 IN8       0.117500
     33 H11         23.7490    45.0290    45.8520 ha         1 IN8       0.111500
     34 H131        22.6050    38.8360    47.3500 h1         1 IN8       0.071700
     35 H132        24.3630    38.6270    47.3090 h1         1 IN8       0.071700
     36 H15         22.4850    41.2060    51.7920 ha         1 IN8       0.114500
     37 H16         22.4300    41.1220    49.3250 ha         1 IN8       0.115000
     38 H19         24.8390    37.6240    51.8590 ha         1 IN8       0.114500
     39 HN3         28.1870    43.5620    48.6040 hn         1 IN8       0.353500
     40 HS2         33.1590    47.5970    48.9620 hs         1 IN8       0.232800
     41 H41         25.7980    43.3280    48.8600 hc         1 IN8       0.083200
     42 H42         24.7860    44.6200    48.1800 hc         1 IN8       0.083200
     43 H5          26.7020    42.8000    46.6460 h1         1 IN8       0.087700
     44 HN4         23.7600    42.7760    46.4170 hn         1 IN8       0.326500
     45 H18         24.8000    37.5580    49.3890 ha         1 IN8       0.115000
     46 H14         23.6860    39.4540    53.0690 ha         1 IN8       0.115000
@<TRIPOS>BOND
     1     1    15 1   
     2     1    16 2   
     3     1    18 1   
     4     2    15 1   
     5     2    17 2   
     6     2    19 1   
     7     3    18 1   
     8     3    20 2   
     9     3    21 1   
    10     4     5 ar  
    11     4    23 ar  
    12     4    29 1   
    13     5     6 ar  
    14     5    30 1   
    15     6     7 ar  
    16     6    31 1   
    17     7     8 ar  
    18     7    32 1   
    19     8    23 ar  
    20     8    33 1   
    21     9    24 1   
    22     9    25 2   
    23     9    26 1   
    24    10    24 1   
    25    10    27 1   
    26    10    34 1   
    27    10    35 1   
    28    11    12 ar  
    29    11    14 ar  
    30    11    46 1   
    31    12    13 ar  
    32    12    36 1   
    33    13    27 ar  
    34    13    37 1   
    35    14    28 ar  
    36    14    38 1   
    37    16    17 1   
    38    18    39 1   
    39    19    40 1   
    40    21    22 1   
    41    21    41 1   
    42    21    42 1   
    43    22    23 1   
    44    22    26 1   
    45    22    43 1   
    46    26    44 1   
    47    27    28 ar  
    48    28    45 1   
@<TRIPOS>SUBSTRUCTURE
     1 IN8         1 TEMP              0 ****  ****    0 ROOT
