@<TRIPOS>MOLECULE
IN8
   46    48     1     0     0
SMALL
No Charge or Current Charge


@<TRIPOS>ATOM
      1 C1          29.4800    45.1890    48.9260 cc         1 IN8       0.514300
      2 C2          31.5320    46.3430    49.2080 cc         1 IN8       0.471700
      3 C3          27.1930    45.1680    47.9670 c          1 IN8       0.611100
      4 C7          26.4410    44.6680    44.3270 ca         1 IN8      -0.090000
      5 C8          26.1400    45.5320    43.2600 ca         1 IN8      -0.104500
      6 C9          24.9220    46.2300    43.2400 ca         1 IN8      -0.095000
      7 C10         24.0030    46.0640    44.2900 ca         1 IN8      -0.104500
      8 C11         24.3030    45.2010    45.3580 ca         1 IN8      -0.090000
      9 C12         25.0980    41.2610    47.1900 c          1 IN8       0.630100
     10 C13         23.9510    39.1980    47.6560 c3         1 IN8       0.229900
     11 C14         23.4460    39.6860    51.9490 ca         1 IN8      -0.101000
     12 C15         22.4380    40.1110    51.0670 ca         1 IN8      -0.111000
     13 C16         22.6030    39.9530    49.6800 ca         1 IN8      -0.091500
     14 C19         24.6190    39.1020    51.4420 ca         1 IN8      -0.111000
     15 S1          30.0610    46.7390    48.3820 ss         1 IN8      -0.146800
     16 N1          30.3450    44.4940    49.6460 nd         1 IN8      -0.383000
     17 N2          31.5430    45.1660    49.8130 nd         1 IN8      -0.314000
     18 N3          28.2440    44.6420    48.6760 ns         1 IN8      -0.473400
     19 S2          32.9000    47.4590    49.2210 sh         1 IN8      -0.334100
     20 O1          27.2180    46.2730    47.4510 o          1 IN8      -0.560100
     21 C4          25.9570    44.2740    47.9060 c3         1 IN8      -0.180400
     22 C5          25.8630    43.5540    46.5410 c3         1 IN8       0.181000
     23 C6          25.5260    44.4970    45.3870 ca         1 IN8      -0.109300
     24 O2          23.9840    40.4950    47.0300 os         1 IN8      -0.461100
     25 O3          26.1360    40.9210    47.7370 o          1 IN8      -0.533000
     26 N4          24.8890    42.4680    46.5900 ns         1 IN8      -0.490900
     27 C17         23.7770    39.3680    49.1650 ca         1 IN8      -0.120300
     28 C18         24.7850    38.9430    50.0550 ca         1 IN8      -0.091500
     29 H7          27.3880    44.1330    44.3280 ha         1 IN8       0.111500
     30 H8          26.8520    45.6590    42.4470 ha         1 IN8       0.117500
     31 H9          24.6900    46.8980    42.4140 ha         1 IN8       0.117000
     32 H10         23.0580    46.6030    44.2750 ha         1 IN8       0.117500
     33 H11         23.5800    45.0800    46.1620 ha         1 IN8       0.111500
     34 H131        23.1010    38.6190    47.2720 h1         1 IN8       0.071700
     35 H132        24.8620    38.6260    47.4320 h1         1 IN8       0.071700
     36 H15         21.5290    40.5640    51.4580 ha         1 IN8       0.114500
     37 H16         21.8180    40.2860    49.0030 ha         1 IN8       0.115000
     38 H19         25.4010    38.7730    52.1230 ha         1 IN8       0.114500
     39 HN3         28.0840    43.7240    49.0640 hn         1 IN8       0.353500
     40 HS2         33.6650    46.6310    49.9680 hs         1 IN8       0.232800
     41 H41         26.0230    43.5130    48.6910 hc         1 IN8       0.083200
     42 H42         25.0610    44.8840    48.0600 hc         1 IN8       0.083200
     43 H5          26.8410    43.0940    46.3360 h1         1 IN8       0.087700
     44 HN4         23.9900    42.5960    46.1470 hn         1 IN8       0.326500
     45 H18         25.6980    38.4930    49.6720 ha         1 IN8       0.115000
     46 H14         23.3180    39.8090    53.0220 ha         1 IN8       0.115000
@<TRIPOS>BOND
     1     1    15 1   
     2     1    16 2   
     3     1    18 1   
     4     2    15 1   
     5     2    17 2   
     6     2    19 1   
     7     3    18 1   
     8     3    20 2   
     9     3    21 1   
    10     4     5 ar  
    11     4    23 ar  
    12     4    29 1   
    13     5     6 ar  
    14     5    30 1   
    15     6     7 ar  
    16     6    31 1   
    17     7     8 ar  
    18     7    32 1   
    19     8    23 ar  
    20     8    33 1   
    21     9    24 1   
    22     9    25 2   
    23     9    26 1   
    24    10    24 1   
    25    10    27 1   
    26    10    34 1   
    27    10    35 1   
    28    11    12 ar  
    29    11    14 ar  
    30    11    46 1   
    31    12    13 ar  
    32    12    36 1   
    33    13    27 ar  
    34    13    37 1   
    35    14    28 ar  
    36    14    38 1   
    37    16    17 1   
    38    18    39 1   
    39    19    40 1   
    40    21    22 1   
    41    21    41 1   
    42    21    42 1   
    43    22    23 1   
    44    22    26 1   
    45    22    43 1   
    46    26    44 1   
    47    27    28 ar  
    48    28    45 1   
@<TRIPOS>SUBSTRUCTURE
     1 IN8         1 TEMP              0 ****  ****    0 ROOT
