@<TRIPOS>MOLECULE
IN9
   37    38     1     0     0
SMALL
No Charge or Current Charge


@<TRIPOS>ATOM
      1 C1          30.1760    46.7700    48.5890 cc         1 IN9       0.534300
      2 C2          31.4200    48.7870    48.4980 cc         1 IN9       0.476700
      3 C3          27.9750    45.6840    48.7900 c          1 IN9       0.662100
      4 C7          25.3450    44.1640    47.3880 c3         1 IN9      -0.042100
      5 C8          24.5980    46.5890    47.0850 ca         1 IN9       0.170500
      6 C9          25.4750    45.5410    46.7250 ca         1 IN9      -0.125300
      7 C10         26.4980    45.8050    45.7840 ca         1 IN9       0.170500
      8 C11         26.6400    47.0880    45.2210 ca         1 IN9       0.111500
      9 C12         25.7600    48.1190    45.5890 ca         1 IN9       0.150000
     10 C13         24.7380    47.8700    46.5190 ca         1 IN9       0.111500
     11 C14         24.0670    41.1930    50.5020 c3         1 IN9       0.094300
     12 S1          29.7280    48.4530    48.6570 ss         1 IN9      -0.155800
     13 N1          31.4740    46.5480    48.4530 nd         1 IN9      -0.389000
     14 N2          32.2020    47.7240    48.4030 nd         1 IN9      -0.312000
     15 N3          29.3280    45.6920    48.6390 ns         1 IN9      -0.482400
     16 S2          32.0230    50.4460    48.4670 sh         1 IN9      -0.333100
     17 O1          27.2940    46.6800    48.9500 o          1 IN9      -0.625100
     18 N4          27.4440    44.4220    48.7350 ns         1 IN9      -0.498900
     19 C5          25.9960    44.1040    48.7980 c3         1 IN9       0.047700
     20 C6          25.7790    42.7130    49.4620 c          1 IN9       0.585100
     21 O2          26.6840    41.9050    49.6310 o          1 IN9      -0.604100
     22 N5          24.4860    42.4420    49.8600 ns         1 IN9      -0.495900
     23 F10         27.3670    44.8280    45.4320 f          1 IN9      -0.152000
     24 F11         27.6310    47.3290    44.3290 f          1 IN9      -0.132000
     25 F12         25.8990    49.3530    45.0480 f          1 IN9      -0.129000
     26 F13         23.8900    48.8650    46.8750 f          1 IN9      -0.132000
     27 H71         24.2840    43.8950    47.4660 hc         1 IN9       0.079700
     28 H72         25.7910    43.3840    46.7580 hc         1 IN9       0.079700
     29 H141        22.9910    41.2310    50.7150 h1         1 IN9       0.048033
     30 H142        24.2740    40.3460    49.8350 h1         1 IN9       0.048033
     31 H143        24.6160    41.0580    51.4430 h1         1 IN9       0.048033
     32 HN3         29.7640    44.7890    48.5410 hn         1 IN9       0.347500
     33 HS2         33.3110    50.0550    48.3350 hs         1 IN9       0.232800
     34 HN4         28.0880    43.6450    48.6410 hn         1 IN9       0.344500
     35 H5          25.5030    44.8400    49.4480 h1         1 IN9       0.094700
     36 HN5         23.7890    43.1610    49.7000 hn         1 IN9       0.323500
     37 F8          23.6160    46.3660    47.9910 f          1 IN9      -0.152000
@<TRIPOS>BOND
     1     1    12 1   
     2     1    13 2   
     3     1    15 1   
     4     2    12 1   
     5     2    14 2   
     6     2    16 1   
     7     3    15 1   
     8     3    17 2   
     9     3    18 1   
    10     4     6 1   
    11     4    19 1   
    12     4    27 1   
    13     4    28 1   
    14     5     6 ar  
    15     5    10 ar  
    16     5    37 1   
    17     6     7 ar  
    18     7     8 ar  
    19     7    23 1   
    20     8     9 ar  
    21     8    24 1   
    22     9    10 ar  
    23     9    25 1   
    24    10    26 1   
    25    11    22 1   
    26    11    29 1   
    27    11    30 1   
    28    11    31 1   
    29    13    14 1   
    30    15    32 1   
    31    16    33 1   
    32    18    19 1   
    33    18    34 1   
    34    19    20 1   
    35    19    35 1   
    36    20    21 2   
    37    20    22 1   
    38    22    36 1   
@<TRIPOS>SUBSTRUCTURE
     1 IN9         1 TEMP              0 ****  ****    0 ROOT
