@<TRIPOS>MOLECULE
IN9
   37    38     1     0     0
SMALL
abcg2


@<TRIPOS>ATOM
      1 C1          30.1150    46.6200    48.5310 cc         1 IN9       0.534300
      2 C2          31.1220    48.7700    48.5170 cc         1 IN9       0.476700
      3 C3          27.9840    45.4860    48.8110 c          1 IN9       0.662100
      4 C7          25.3260    44.1730    47.3090 c3         1 IN9      -0.042100
      5 C8          24.6600    46.5740    46.9490 ca         1 IN9       0.170500
      6 C9          25.5330    45.5250    46.6890 ca         1 IN9      -0.125300
      7 C10         26.6370    45.8190    45.8990 ca         1 IN9       0.170500
      8 C11         26.8800    47.0930    45.4080 ca         1 IN9       0.111500
      9 C12         25.9910    48.1160    45.6940 ca         1 IN9       0.150000
     10 C13         24.8690    47.8530    46.4650 ca         1 IN9       0.111500
     11 C14         24.1390    41.3560    50.6400 c3         1 IN9       0.094300
     12 S1          29.4880    48.2230    48.8100 ss         1 IN9      -0.155800
     13 N1          31.3870    46.5760    48.2640 nd         1 IN9      -0.389000
     14 N2          31.9680    47.8240    48.2560 nd         1 IN9      -0.312000
     15 N3          29.3460    45.4890    48.5590 ns         1 IN9      -0.482400
     16 S2          31.5090    50.4780    48.5890 sh         1 IN9      -0.333100
     17 O1          27.3950    46.5160    49.1280 o          1 IN9      -0.625100
     18 N4          27.3990    44.2780    48.6690 ns         1 IN9      -0.498900
     19 C5          25.9660    44.0920    48.7210 c3         1 IN9       0.047700
     20 C6          25.6830    42.7080    49.3070 c          1 IN9       0.585100
     21 O2          26.4100    41.7510    49.0350 o          1 IN9      -0.604100
     22 N5          24.5930    42.6160    50.0740 ns         1 IN9      -0.495900
     23 F10         27.5270    44.8570    45.6010 f          1 IN9      -0.152000
     24 F11         27.9650    47.3430    44.6670 f          1 IN9      -0.132000
     25 F12         26.2070    49.3470    45.2250 f          1 IN9      -0.129000
     26 F13         24.0040    48.8370    46.7360 f          1 IN9      -0.132000
     27 H71         24.2600    43.9650    47.3950 hc         1 IN9       0.079700
     28 H72         25.7710    43.4010    46.6820 hc         1 IN9       0.079700
     29 H141        23.2330    41.5430    51.2100 h1         1 IN9       0.048033
     30 H142        23.9240    40.6340    49.8510 h1         1 IN9       0.048033
     31 H143        24.8980    40.9330    51.3000 h1         1 IN9       0.048033
     32 HN3         29.8200    44.6320    48.3080 hn         1 IN9       0.347500
     33 HS2         32.8100    50.3020    48.2970 hs         1 IN9       0.232800
     34 HN4         27.9390    43.4790    48.3700 hn         1 IN9       0.344500
     35 H5          25.5450    44.8690    49.3550 h1         1 IN9       0.094700
     36 HN5         24.0640    43.4510    50.2710 hn         1 IN9       0.323500
     37 F8          23.5750    46.3580    47.7110 f          1 IN9      -0.152000
@<TRIPOS>BOND
     1     1    12 1   
     2     1    13 2   
     3     1    15 1   
     4     2    12 1   
     5     2    14 2   
     6     2    16 1   
     7     3    15 1   
     8     3    17 2   
     9     3    18 1   
    10     4     6 1   
    11     4    19 1   
    12     4    27 1   
    13     4    28 1   
    14     5     6 ar  
    15     5    10 ar  
    16     5    37 1   
    17     6     7 ar  
    18     7     8 ar  
    19     7    23 1   
    20     8     9 ar  
    21     8    24 1   
    22     9    10 ar  
    23     9    25 1   
    24    10    26 1   
    25    11    22 1   
    26    11    29 1   
    27    11    30 1   
    28    11    31 1   
    29    13    14 1   
    30    15    32 1   
    31    16    33 1   
    32    18    19 1   
    33    18    34 1   
    34    19    20 1   
    35    19    35 1   
    36    20    21 2   
    37    20    22 1   
    38    22    36 1   
@<TRIPOS>SUBSTRUCTURE
     1 IN9         1 TEMP              0 ****  ****    0 ROOT
