@<TRIPOS>MOLECULE
INA
   82    83     1     0     0
SMALL
No Charge or Current Charge


@<TRIPOS>ATOM
      1 C1          -0.4010    -3.7280     9.3310 ca         1 INA      -0.097500
      2 C2           0.7550    -3.7640     8.5330 ca         1 INA      -0.115500
      3 C3           1.2380    -2.5850     7.9390 ca         1 INA      -0.084000
      4 C4           0.5680    -1.3620     8.1410 ca         1 INA      -0.103300
      5 C5          -0.5920    -1.3320     8.9410 ca         1 INA      -0.084000
      6 C6          -1.0740    -2.5120     9.5340 ca         1 INA      -0.115500
      7 C7           1.0910    -0.0840     7.4980 c3         1 INA       0.230900
      8 O8           0.4960     0.0450     6.1970 os         1 INA      -0.449600
      9 C9           0.8440     1.1280     5.4530 c          1 INA       0.638100
     10 O10          1.6080     2.0160     5.7970 o          1 INA      -0.553000
     11 C11          0.2800     2.0720     3.1740 c3         1 INA       0.056200
     12 C12          1.2540     1.5790     2.0640 c3         1 INA      -0.088400
     13 C13          2.7460     1.4320     2.4780 c3         1 INA      -0.058200
     14 C14          3.5570     0.7210     1.3710 c3         1 INA      -0.091350
     15 C15          3.3990     2.7870     2.8420 c3         1 INA      -0.091350
     16 C16         -1.1320     2.3630     2.5840 c          1 INA       0.572100
     17 O17         -2.1030     1.6410     2.7820 o          1 INA      -0.563600
     18 N18         -1.2250     3.5120     1.8080 ns         1 INA      -0.381000
     19 N19         -2.4200     3.9170     1.1210 ns         1 INA      -0.350000
     20 N20          0.1740     1.0770     4.2640 ns         1 INA      -0.477400
     21 C21         -2.9190     3.3250    -0.0240 c          1 INA       0.641100
     22 O22         -4.0020     3.6330    -0.4960 o          1 INA      -0.588100
     23 C23          3.8430    -5.5430    -6.1110 ca         1 INA      -0.097500
     24 C24          2.5690    -5.6300    -6.6970 ca         1 INA      -0.115500
     25 C25          1.7890    -4.4720    -6.8630 ca         1 INA      -0.084000
     26 C26          2.2800    -3.2190    -6.4440 ca         1 INA      -0.103300
     27 C27          3.5580    -3.1380    -5.8540 ca         1 INA      -0.084000
     28 C28          4.3370    -4.2970    -5.6890 ca         1 INA      -0.115500
     29 C29          1.4360    -1.9650    -6.6240 c3         1 INA       0.230900
     30 O30          0.6240    -1.7930    -5.4510 os         1 INA      -0.449600
     31 C31         -0.2120    -0.7220    -5.4180 c          1 INA       0.638100
     32 O32         -0.3260     0.1230    -6.2920 o          1 INA      -0.553000
     33 C33         -1.8890     0.2740    -3.8050 c3         1 INA       0.056200
     34 C34         -3.3350    -0.2510    -4.0420 c3         1 INA      -0.088400
     35 C35         -3.7470    -0.4760    -5.5250 c3         1 INA      -0.058200
     36 C36         -5.1030    -1.2110    -5.6150 c3         1 INA      -0.091350
     37 C37         -3.7910     0.8420    -6.3370 c3         1 INA      -0.091350
     38 C38         -1.6660     0.6440    -2.3080 c          1 INA       0.572100
     39 O39         -0.9610    -0.0150    -1.5500 o          1 INA      -0.563600
     40 N40         -2.3170     1.7890    -1.8760 ns         1 INA      -0.381000
     41 N41         -2.0890     2.3780    -0.5940 ns         1 INA      -0.350000
     42 N42         -0.8860    -0.7270    -4.2310 ns         1 INA      -0.477400
     43 H1          -0.7740    -4.6410     9.7910 ha         1 INA       0.113500
     44 H2           1.2770    -4.7050     8.3740 ha         1 INA       0.114750
     45 H3           2.1320    -2.6220     7.3200 ha         1 INA       0.115250
     46 H5          -1.1220    -0.3950     9.1010 ha         1 INA       0.115250
     47 H6          -1.9700    -2.4830    10.1510 ha         1 INA       0.114750
     48 H71          2.1860    -0.1330     7.4220 h1         1 INA       0.056700
     49 H72          0.8360     0.7770     8.1310 h1         1 INA       0.056700
     50 H11          0.6430     3.0210     3.5880 h1         1 INA       0.077200
     51 H121         1.2050     2.2640     1.2080 hc         1 INA       0.064450
     52 H122         0.8890     0.6110     1.6960 hc         1 INA       0.064450
     53 H13          2.7950     0.7900     3.3660 hc         1 INA       0.049700
     54 H141         4.5990     0.5780     1.6840 hc         1 INA       0.036200
     55 H142         3.1340    -0.2670     1.1530 hc         1 INA       0.036200
     56 H143         3.5550     1.3080     0.4450 hc         1 INA       0.036200
     57 H151         3.3640     3.4780     1.9910 hc         1 INA       0.036200
     58 H152         2.8930     3.2620     3.6890 hc         1 INA       0.036200
     59 H153         4.4500     2.6460     3.1230 hc         1 INA       0.036200
     60 HN8         -0.3910     4.0810     1.6680 hn         1 INA       0.350000
     61 HN9         -3.0230     4.5830     1.5960 hn         1 INA       0.331000
     62 HN0         -0.4600     0.2960     4.1510 hn         1 INA       0.338500
     63 H24          2.1850    -6.5950    -7.0220 ha         1 INA       0.114750
     64 H25          0.8030    -4.5490    -7.3150 ha         1 INA       0.115250
     65 H27          3.9460    -2.1780    -5.5230 ha         1 INA       0.115250
     66 H28          5.3220    -4.2290    -5.2340 ha         1 INA       0.114750
     67 H291         0.8090    -2.0690    -7.5190 h1         1 INA       0.056700
     68 H292         2.0930    -1.0970    -6.7720 h1         1 INA       0.056700
     69 H33         -1.7360     1.1980    -4.3760 h1         1 INA       0.077200
     70 H341        -3.4490    -1.1940    -3.4930 hc         1 INA       0.064450
     71 H342        -4.0510     0.4480    -3.5910 hc         1 INA       0.064450
     72 H35         -3.0020    -1.1300    -5.9940 hc         1 INA       0.049700
     73 H361        -5.3700    -1.4080    -6.6600 hc         1 INA       0.036200
     74 H362        -5.0590    -2.1750    -5.0930 hc         1 INA       0.036200
     75 H363        -5.9040    -0.6130    -5.1630 hc         1 INA       0.036200
     76 H371        -4.5120     1.5440    -5.9020 hc         1 INA       0.036200
     77 H372        -2.8110     1.3300    -6.3640 hc         1 INA       0.036200
     78 H373        -4.0900     0.6450    -7.3740 hc         1 INA       0.036200
     79 HN4         -2.7600     2.3800    -2.5770 hn         1 INA       0.350000
     80 HN1         -1.1490     2.3110    -0.2190 hn         1 INA       0.331000
     81 HN2         -0.6420    -1.4740    -3.5920 hn         1 INA       0.338500
     82 H23          4.4460    -6.4400    -5.9830 ha         1 INA       0.113500
@<TRIPOS>BOND
     1     1     2 ar  
     2     1     6 ar  
     3     1    43 1   
     4     2     3 ar  
     5     2    44 1   
     6     3     4 ar  
     7     3    45 1   
     8     4     5 ar  
     9     4     7 1   
    10     5     6 ar  
    11     5    46 1   
    12     6    47 1   
    13     7     8 1   
    14     7    48 1   
    15     7    49 1   
    16     8     9 1   
    17     9    10 2   
    18     9    20 1   
    19    11    12 1   
    20    11    16 1   
    21    11    20 1   
    22    11    50 1   
    23    12    13 1   
    24    12    51 1   
    25    12    52 1   
    26    13    14 1   
    27    13    15 1   
    28    13    53 1   
    29    14    54 1   
    30    14    55 1   
    31    14    56 1   
    32    15    57 1   
    33    15    58 1   
    34    15    59 1   
    35    16    17 2   
    36    16    18 1   
    37    18    19 1   
    38    18    60 1   
    39    19    21 1   
    40    19    61 1   
    41    20    62 1   
    42    21    22 2   
    43    21    41 1   
    44    23    24 ar  
    45    23    28 ar  
    46    23    82 1   
    47    24    25 ar  
    48    24    63 1   
    49    25    26 ar  
    50    25    64 1   
    51    26    27 ar  
    52    26    29 1   
    53    27    28 ar  
    54    27    65 1   
    55    28    66 1   
    56    29    30 1   
    57    29    67 1   
    58    29    68 1   
    59    30    31 1   
    60    31    32 2   
    61    31    42 1   
    62    33    34 1   
    63    33    38 1   
    64    33    42 1   
    65    33    69 1   
    66    34    35 1   
    67    34    70 1   
    68    34    71 1   
    69    35    36 1   
    70    35    37 1   
    71    35    72 1   
    72    36    73 1   
    73    36    74 1   
    74    36    75 1   
    75    37    76 1   
    76    37    77 1   
    77    37    78 1   
    78    38    39 2   
    79    38    40 1   
    80    40    41 1   
    81    40    79 1   
    82    41    80 1   
    83    42    81 1   
@<TRIPOS>SUBSTRUCTURE
     1 INA         1 TEMP              0 ****  ****    0 ROOT
