@<TRIPOS>MOLECULE
INA
   82    83     1     0     0
SMALL
bcc


@<TRIPOS>ATOM
      1 C1           0.5900    -4.1090     8.2210 ca         1 INA      -0.115500
      2 C2           1.5360    -3.1280     8.4890 ca         1 INA      -0.133500
      3 C3           1.3890    -1.8570     7.9490 ca         1 INA      -0.102000
      4 C4           0.2980    -1.5530     7.1420 ca         1 INA      -0.103300
      5 C5          -0.6460    -2.5420     6.8780 ca         1 INA      -0.102000
      6 C6          -0.5020    -3.8140     7.4130 ca         1 INA      -0.133500
      7 C7           0.1490    -0.1880     6.5430 c3         1 INA       0.207700
      8 O8           0.6010    -0.2740     5.1850 os         1 INA      -0.426400
      9 C9           0.4860     0.8240     4.4380 c          1 INA       0.754100
     10 O10          0.0530     1.8860     4.8370 o          1 INA      -0.602000
     11 C11          0.7730     1.6300     2.1810 c3         1 INA       0.056200
     12 C12          1.3670     1.1570     0.8490 c3         1 INA      -0.088400
     13 C13          2.8490     0.7770     0.8980 c3         1 INA      -0.058200
     14 C14          3.2760     0.2490    -0.4670 c3         1 INA      -0.091350
     15 C15          3.7310     1.9440     1.3270 c3         1 INA      -0.091350
     16 C16         -0.7060     1.9270     1.9560 c          1 INA       0.639100
     17 O17         -1.5680     1.0790     2.0230 o          1 INA      -0.563600
     18 N18         -0.9660     3.2090     1.5830 ns         1 INA      -0.448000
     19 N19         -2.2300     3.5860     1.2250 ns         1 INA      -0.417000
     20 N20          0.9310     0.6130     3.1830 ns         1 INA      -0.544400
     21 C21         -2.7040     3.2560    -0.0270 c          1 INA       0.775100
     22 O22         -3.8890     3.1460    -0.2610 o          1 INA      -0.588100
     23 C23          3.5490    -5.2860    -3.8250 ca         1 INA      -0.115500
     24 C24          3.4040    -4.7490    -5.0960 ca         1 INA      -0.133500
     25 C25          2.9100    -3.4600    -5.2530 ca         1 INA      -0.102000
     26 C26          2.5600    -2.6970    -4.1450 ca         1 INA      -0.103300
     27 C27          2.7070    -3.2450    -2.8720 ca         1 INA      -0.102000
     28 C28          3.1990    -4.5320    -2.7120 ca         1 INA      -0.133500
     29 C29          2.0170    -1.3110    -4.3100 c3         1 INA       0.207700
     30 O30          0.5920    -1.3950    -4.1810 os         1 INA      -0.426400
     31 C31         -0.0700    -0.2410    -4.0790 c          1 INA       0.754100
     32 O32          0.4540     0.8530    -4.0840 o          1 INA      -0.602000
     33 C33         -2.2590     0.6700    -3.6570 c3         1 INA       0.056200
     34 C34         -3.7240     0.2350    -3.6490 c3         1 INA      -0.088400
     35 C35         -4.2600    -0.2560    -4.9960 c3         1 INA      -0.058200
     36 C36         -5.7100    -0.7000    -4.8240 c3         1 INA      -0.091350
     37 C37         -4.1520     0.8130    -6.0780 c3         1 INA      -0.091350
     38 C38         -1.9010     1.2130    -2.2750 c          1 INA       0.639100
     39 O39         -1.5840     0.4950    -1.3510 o          1 INA      -0.563600
     40 N40         -2.0110     2.5570    -2.1610 ns         1 INA      -0.448000
     41 N41         -1.7300     3.1720    -0.9840 ns         1 INA      -0.417000
     42 N42         -1.4030    -0.4390    -3.9870 ns         1 INA      -0.544400
     43 H1           0.7010    -5.0990     8.6430 ha         1 INA       0.131500
     44 H2           2.3870    -3.3520     9.1190 ha         1 INA       0.132750
     45 H3           2.1280    -1.0940     8.1610 ha         1 INA       0.133250
     46 H5          -1.5030    -2.3140     6.2540 ha         1 INA       0.133250
     47 H6          -1.2420    -4.5750     7.2030 ha         1 INA       0.132750
     48 H71          0.7470     0.5440     7.0900 h1         1 INA       0.056700
     49 H72         -0.8930     0.1350     6.5690 h1         1 INA       0.056700
     50 H11          1.2850     2.5430     2.4990 h1         1 INA       0.077200
     51 H121         1.2340     1.9560     0.1130 hc         1 INA       0.064450
     52 H122         0.7830     0.3060     0.4860 hc         1 INA       0.064450
     53 H13          2.9800    -0.0340     1.6220 hc         1 INA       0.049700
     54 H141         4.3190    -0.0670    -0.4580 hc         1 INA       0.036200
     55 H142         2.6710    -0.6090    -0.7670 hc         1 INA       0.036200
     56 H143         3.1650     1.0170    -1.2370 hc         1 INA       0.036200
     57 H151         3.6430     2.7770     0.6250 hc         1 INA       0.036200
     58 H152         3.4750     2.3160     2.3210 hc         1 INA       0.036200
     59 H153         4.7790     1.6450     1.3530 hc         1 INA       0.036200
     60 HN8         -0.2850     3.9430     1.7070 hn         1 INA       0.350000
     61 HN9         -2.9220     3.5570     1.9620 hn         1 INA       0.331000
     62 HN0          1.1340    -0.3290     2.8890 hn         1 INA       0.338500
     63 H24          3.6750    -5.3320    -5.9680 ha         1 INA       0.132750
     64 H25          2.7970    -3.0450    -6.2480 ha         1 INA       0.133250
     65 H27          2.4430    -2.6600    -1.9990 ha         1 INA       0.133250
     66 H28          3.3140    -4.9440    -1.7180 ha         1 INA       0.132750
     67 H291         2.2780    -0.9040    -5.2890 h1         1 INA       0.056700
     68 H292         2.4240    -0.6430    -3.5480 h1         1 INA       0.056700
     69 H33         -2.1240     1.4580    -4.4030 h1         1 INA       0.077200
     70 H341        -3.8550    -0.5440    -2.8920 hc         1 INA       0.064450
     71 H342        -4.3260     1.0870    -3.3180 hc         1 INA       0.064450
     72 H35         -3.6760    -1.1270    -5.3120 hc         1 INA       0.049700
     73 H361        -6.1210    -1.0740    -5.7630 hc         1 INA       0.036200
     74 H362        -5.8010    -1.4960    -4.0830 hc         1 INA       0.036200
     75 H363        -6.3360     0.1330    -4.4960 hc         1 INA       0.036200
     76 H371        -4.6650     1.7280    -5.7720 hc         1 INA       0.036200
     77 H372        -3.1170     1.0720    -6.3080 hc         1 INA       0.036200
     78 H373        -4.6090     0.4700    -7.0070 hc         1 INA       0.036200
     79 HN4         -2.1870     3.1470    -2.9590 hn         1 INA       0.350000
     80 HN1         -0.7580     3.1800    -0.7120 hn         1 INA       0.331000
     81 HN2         -1.7430    -1.3740    -3.8200 hn         1 INA       0.338500
     82 H23          3.9380    -6.2890    -3.6990 ha         1 INA       0.131500
@<TRIPOS>BOND
     1     1     2 ar  
     2     1     6 ar  
     3     1    43 1   
     4     2     3 ar  
     5     2    44 1   
     6     3     4 ar  
     7     3    45 1   
     8     4     5 ar  
     9     4     7 1   
    10     5     6 ar  
    11     5    46 1   
    12     6    47 1   
    13     7     8 1   
    14     7    48 1   
    15     7    49 1   
    16     8     9 1   
    17     9    10 2   
    18     9    20 1   
    19    11    12 1   
    20    11    16 1   
    21    11    20 1   
    22    11    50 1   
    23    12    13 1   
    24    12    51 1   
    25    12    52 1   
    26    13    14 1   
    27    13    15 1   
    28    13    53 1   
    29    14    54 1   
    30    14    55 1   
    31    14    56 1   
    32    15    57 1   
    33    15    58 1   
    34    15    59 1   
    35    16    17 2   
    36    16    18 1   
    37    18    19 1   
    38    18    60 1   
    39    19    21 1   
    40    19    61 1   
    41    20    62 1   
    42    21    22 2   
    43    21    41 1   
    44    23    24 ar  
    45    23    28 ar  
    46    23    82 1   
    47    24    25 ar  
    48    24    63 1   
    49    25    26 ar  
    50    25    64 1   
    51    26    27 ar  
    52    26    29 1   
    53    27    28 ar  
    54    27    65 1   
    55    28    66 1   
    56    29    30 1   
    57    29    67 1   
    58    29    68 1   
    59    30    31 1   
    60    31    32 2   
    61    31    42 1   
    62    33    34 1   
    63    33    38 1   
    64    33    42 1   
    65    33    69 1   
    66    34    35 1   
    67    34    70 1   
    68    34    71 1   
    69    35    36 1   
    70    35    37 1   
    71    35    72 1   
    72    36    73 1   
    73    36    74 1   
    74    36    75 1   
    75    37    76 1   
    76    37    77 1   
    77    37    78 1   
    78    38    39 2   
    79    38    40 1   
    80    40    41 1   
    81    40    79 1   
    82    41    80 1   
    83    42    81 1   
@<TRIPOS>SUBSTRUCTURE
     1 INA         1 TEMP              0 ****  ****    0 ROOT
