@<TRIPOS>MOLECULE
INB
   88    87     1     0     0
SMALL
abcg2


@<TRIPOS>ATOM
      1 C1           0.7240     1.0270    -3.9030 c3         1 INB       0.141600
      2 C2           0.1340     0.3090    -5.1100 c3         1 INB       0.115700
      3 C3           0.7180     0.8690    -6.4010 c3         1 INB       0.208600
      4 O1           0.1900     0.4690    -2.7340 os         1 INB      -0.458000
      5 O3           0.2760     0.0650    -7.4750 os         1 INB      -0.586400
      6 N2          -1.3140     0.2750    -5.1230 ns         1 INB      -0.475900
      7 C           -2.1260     1.3420    -5.1410 c          1 INB       0.616100
      8 O           -1.7250     2.4990    -5.0990 o          1 INB      -0.624100
      9 CM          -3.6020     1.0240    -5.1990 c3         1 INB      -0.175100
     10 P            0.2040     0.7650    -8.9550 p5         1 INB       1.391800
     11 O1P         -0.9690     1.6910    -9.0510 o          1 INB      -0.824500
     12 O2P          1.5640     1.2480    -9.3610 o          1 INB      -0.824500
     13 O3P         -0.1400    -0.6570    -9.7050 os         1 INB      -0.587400
     14 C1B         -0.4500    -0.5990   -11.0840 c3         1 INB       0.233600
     15 C2B         -0.1210    -1.9480   -11.6950 c3         1 INB       0.068600
     16 S           -0.5480    -1.9250   -13.4590 ss         1 INB      -0.470000
     17 CMB         -0.0210    -3.5910   -13.9140 c3         1 INB       0.044900
     18 C19          0.7320     1.0350    -1.5650 c3         1 INB       0.165600
     19 C20          0.1090     0.3790    -0.3490 c3         1 INB      -0.079400
     20 C21          0.6830     0.9260     0.9520 c3         1 INB      -0.074400
     21 C4           0.0840     0.2630     2.1860 c3         1 INB      -0.074400
     22 C5           0.6630     0.7860     3.4940 c3         1 INB      -0.074400
     23 C6           0.0660     0.1090     4.7210 c3         1 INB      -0.074400
     24 C7           0.6400     0.6160     6.0380 c3         1 INB      -0.074400
     25 C8           0.0350    -0.0730     7.2550 c3         1 INB      -0.074400
     26 C9           0.5950     0.4250     8.5820 c3         1 INB      -0.073400
     27 C10         -0.0250    -0.2730     9.7860 c3         1 INB      -0.074400
     28 C11          0.5150     0.2170    11.1230 c3         1 INB      -0.073400
     29 C12         -0.1220    -0.4860    12.3150 c3         1 INB      -0.074400
     30 C13          0.4010    -0.0020    13.6620 c3         1 INB      -0.073400
     31 C14         -0.2520    -0.7090    14.8430 c3         1 INB      -0.074400
     32 C15          0.2570    -0.2300    16.1970 c3         1 INB      -0.074400
     33 C16         -0.4060    -0.9390    17.3710 c3         1 INB      -0.075400
     34 C17          0.0940    -0.4620    18.7290 c3         1 INB      -0.074400
     35 C18         -0.5770    -1.1780    19.8920 c3         1 INB      -0.088100
     36 H1'1         0.5290     2.1040    -3.9500 h1         1 INB       0.034700
     37 H1'2         1.8160     0.8990    -3.9360 h1         1 INB       0.034700
     38 H2           0.4410    -0.7390    -5.0400 h1         1 INB       0.054700
     39 H3'1         0.4160     1.9130    -6.5230 h1         1 INB       0.036200
     40 H3'2         1.8110     0.8490    -6.3300 h1         1 INB       0.036200
     41 HN2         -1.7380    -0.6350    -5.1890 hn         1 INB       0.310500
     42 HM'1        -4.0630     1.5930    -6.0060 hc         1 INB       0.050367
     43 HM'2        -3.8170    -0.0320    -5.3550 hc         1 INB       0.050367
     44 HM'3        -4.0760     1.3380    -4.2690 hc         1 INB       0.050367
     45 H1A1        -1.5100    -0.3660   -11.2310 h1         1 INB       0.032700
     46 H1A2         0.1290     0.1780   -11.5960 h1         1 INB       0.032700
     47 H2'1         0.9440    -2.1620   -11.5840 h1         1 INB       0.061700
     48 H2'2        -0.6860    -2.7400   -11.1980 h1         1 INB       0.061700
     49 HMA1        -0.2090    -3.7150   -14.9790 h1         1 INB       0.049700
     50 HMA2         1.0430    -3.7300   -13.7300 h1         1 INB       0.049700
     51 HMA3        -0.5860    -4.3460   -13.3700 h1         1 INB       0.049700
     52 H11          0.5510     2.1200    -1.5420 h1         1 INB       0.016200
     53 H12          1.8240     0.9010    -1.5430 h1         1 INB       0.016200
     54 H21          0.2770    -0.7020    -0.3960 hc         1 INB       0.049200
     55 H22         -0.9740     0.5310    -0.3670 hc         1 INB       0.049200
     56 H31          0.5170     2.0070     1.0030 hc         1 INB       0.036200
     57 H32          1.7700     0.7860     0.9600 hc         1 INB       0.036200
     58 H41          0.2410    -0.8190     2.1270 hc         1 INB       0.037700
     59 H42         -1.0020     0.4090     2.1850 hc         1 INB       0.037700
     60 H51          0.5000     1.8670     3.5590 hc         1 INB       0.036200
     61 H52          1.7490     0.6430     3.4930 hc         1 INB       0.036200
     62 H61          0.2260    -0.9730     4.6510 hc         1 INB       0.036700
     63 H62         -1.0200     0.2520     4.7210 hc         1 INB       0.036700
     64 H71          0.4780     1.6970     6.1140 hc         1 INB       0.036700
     65 H72          1.7260     0.4730     6.0410 hc         1 INB       0.036700
     66 H81          0.1980    -1.1530     7.1760 hc         1 INB       0.036700
     67 H82         -1.0510     0.0680     7.2460 hc         1 INB       0.036700
     68 H91          0.4320     1.5050     8.6630 hc         1 INB       0.036700
     69 H92          1.6810     0.2810     8.5970 hc         1 INB       0.036700
     70 H101         0.1400    -1.3530     9.7030 hc         1 INB       0.036700
     71 H102        -1.1120    -0.1330     9.7620 hc         1 INB       0.036700
     72 H111         0.3520     1.2970    11.2080 hc         1 INB       0.036700
     73 H112         1.6010     0.0730    11.1530 hc         1 INB       0.036700
     74 H121         0.0440    -1.5660    12.2290 hc         1 INB       0.036700
     75 H122        -1.2080    -0.3460    12.2770 hc         1 INB       0.036700
     76 H131         0.2360     1.0780    13.7490 hc         1 INB       0.036700
     77 H132         1.4860    -0.1460    13.7060 hc         1 INB       0.036700
     78 H141        -0.0850    -1.7890    14.7550 hc         1 INB       0.036700
     79 H142        -1.3370    -0.5680    14.7930 hc         1 INB       0.036700
     80 H151         0.0920     0.8500    16.2850 hc         1 INB       0.036700
     81 H152         1.3420    -0.3740    16.2510 hc         1 INB       0.036700
     82 H161        -0.2410    -2.0190    17.2830 hc         1 INB       0.036700
     83 H162        -1.4910    -0.7960    17.3140 hc         1 INB       0.036700
     84 H171        -0.0710     0.6160    18.8160 hc         1 INB       0.036200
     85 H172         1.1780    -0.6070    18.7860 hc         1 INB       0.036200
     86 H181        -0.2040    -0.8220    20.8530 hc         1 INB       0.031033
     87 H182        -1.6580    -1.0230    19.8790 hc         1 INB       0.031033
     88 H183        -0.4010    -2.2540    19.8470 hc         1 INB       0.031033
@<TRIPOS>BOND
     1     1     2 1   
     2     1     4 1   
     3     1    36 1   
     4     1    37 1   
     5     2     3 1   
     6     2     6 1   
     7     2    38 1   
     8     3     5 1   
     9     3    39 1   
    10     3    40 1   
    11     4    18 1   
    12     5    10 1   
    13     6     7 1   
    14     6    41 1   
    15     7     8 2   
    16     7     9 1   
    17     9    42 1   
    18     9    43 1   
    19     9    44 1   
    20    10    11 1   
    21    10    12 1   
    22    10    13 1   
    23    13    14 1   
    24    14    15 1   
    25    14    45 1   
    26    14    46 1   
    27    15    16 1   
    28    15    47 1   
    29    15    48 1   
    30    16    17 1   
    31    17    49 1   
    32    17    50 1   
    33    17    51 1   
    34    18    19 1   
    35    18    52 1   
    36    18    53 1   
    37    19    20 1   
    38    19    54 1   
    39    19    55 1   
    40    20    21 1   
    41    20    56 1   
    42    20    57 1   
    43    21    22 1   
    44    21    58 1   
    45    21    59 1   
    46    22    23 1   
    47    22    60 1   
    48    22    61 1   
    49    23    24 1   
    50    23    62 1   
    51    23    63 1   
    52    24    25 1   
    53    24    64 1   
    54    24    65 1   
    55    25    26 1   
    56    25    66 1   
    57    25    67 1   
    58    26    27 1   
    59    26    68 1   
    60    26    69 1   
    61    27    28 1   
    62    27    70 1   
    63    27    71 1   
    64    28    29 1   
    65    28    72 1   
    66    28    73 1   
    67    29    30 1   
    68    29    74 1   
    69    29    75 1   
    70    30    31 1   
    71    30    76 1   
    72    30    77 1   
    73    31    32 1   
    74    31    78 1   
    75    31    79 1   
    76    32    33 1   
    77    32    80 1   
    78    32    81 1   
    79    33    34 1   
    80    33    82 1   
    81    33    83 1   
    82    34    35 1   
    83    34    84 1   
    84    34    85 1   
    85    35    86 1   
    86    35    87 1   
    87    35    88 1   
@<TRIPOS>SUBSTRUCTURE
     1 INB         1 TEMP              0 ****  ****    0 ROOT
