@<TRIPOS>MOLECULE
INB
   88    87     1     0     0
SMALL
No Charge or Current Charge


@<TRIPOS>ATOM
      1 C1           0.2590     1.6230    -4.7840 c3         1 INB       0.141600
      2 C2          -0.6400     1.0360    -5.9030 c3         1 INB       0.115700
      3 C3          -0.0320     1.2450    -7.3160 c3         1 INB       0.208600
      4 O1          -0.3040     1.2380    -3.5140 os         1 INB      -0.458000
      5 O3          -0.8170     0.4880    -8.2470 os         1 INB      -0.586400
      6 N2          -2.0440     1.4950    -5.8130 ns         1 INB      -0.475900
      7 C           -2.4820     2.7910    -5.9520 c          1 INB       0.616100
      8 O           -1.7300     3.7330    -6.1630 o          1 INB      -0.624100
      9 CM          -3.9910     2.9670    -5.8260 c3         1 INB      -0.175100
     10 P           -0.3670     0.3940    -9.7880 p5         1 INB       1.391800
     11 O1P         -1.4530    -0.1690   -10.6430 o          1 INB      -0.824500
     12 O2P          0.0980     1.7180   -10.2960 o          1 INB      -0.824500
     13 O3P          0.8610    -0.6450    -9.6480 os         1 INB      -0.587400
     14 C1B          0.6270    -2.0300    -9.3450 c3         1 INB       0.233600
     15 C2B          0.6930    -2.2350    -7.8130 c3         1 INB       0.068600
     16 S            0.5050    -4.0190    -7.3540 ss         1 INB      -0.470000
     17 CMB          0.8600    -3.9060    -5.5450 c3         1 INB       0.044900
     18 C19          0.4550     1.6440    -2.3670 c3         1 INB       0.165600
     19 C20         -0.2930     1.1280    -1.1230 c3         1 INB      -0.079400
     20 C21          0.4690     1.3830     0.1960 c3         1 INB      -0.074400
     21 C4          -0.2870     0.8510     1.4330 c3         1 INB      -0.074400
     22 C5           0.4970     1.0310     2.7510 c3         1 INB      -0.074400
     23 C6          -0.2670     0.5000     3.9850 c3         1 INB      -0.074400
     24 C7           0.5400     0.6230     5.2960 c3         1 INB      -0.074400
     25 C8          -0.2320     0.1080     6.5300 c3         1 INB      -0.074400
     26 C9           0.5930     0.1810     7.8330 c3         1 INB      -0.073400
     27 C10         -0.1890    -0.3110     9.0710 c3         1 INB      -0.074400
     28 C11          0.6490    -0.2780    10.3670 c3         1 INB      -0.073400
     29 C12         -0.1430    -0.7410    11.6100 c3         1 INB      -0.074400
     30 C13          0.7030    -0.7390    12.9020 c3         1 INB      -0.073400
     31 C14         -0.1010    -1.1710    14.1480 c3         1 INB      -0.074400
     32 C15          0.7480    -1.1930    15.4380 c3         1 INB      -0.074400
     33 C16         -0.0620    -1.6010    16.6890 c3         1 INB      -0.075400
     34 C17          0.7890    -1.6400    17.9770 c3         1 INB      -0.074400
     35 C18         -0.0240    -2.0350    19.2250 c3         1 INB      -0.088100
     36 H1'1         0.3170     2.7160    -4.8730 h1         1 INB       0.034700
     37 H1'2         1.2750     1.2180    -4.8890 h1         1 INB       0.034700
     38 H2          -0.6600    -0.0480    -5.7320 h1         1 INB       0.054700
     39 H3'1        -0.0320     2.3110    -7.5760 h1         1 INB       0.036200
     40 H3'2         1.0090     0.8940    -7.3160 h1         1 INB       0.036200
     41 HN2         -2.7580     0.7970    -5.6450 hn         1 INB       0.310500
     42 HM'1        -4.3080     4.0110    -5.9320 hc         1 INB       0.050367
     43 HM'2        -4.4880     2.3200    -6.5590 hc         1 INB       0.050367
     44 HM'3        -4.3230     2.5380    -4.8740 hc         1 INB       0.050367
     45 H1A1        -0.3530    -2.3640    -9.7130 h1         1 INB       0.032700
     46 H1A2         1.3890    -2.6550    -9.8290 h1         1 INB       0.032700
     47 H2'1         1.6610    -1.8720    -7.4400 h1         1 INB       0.061700
     48 H2'2        -0.1030    -1.6710    -7.3130 h1         1 INB       0.061700
     49 HMA1         0.6900    -4.8820    -5.0730 h1         1 INB       0.049700
     50 HMA2         1.9070    -3.6080    -5.3890 h1         1 INB       0.049700
     51 HMA3         0.2020    -3.1600    -5.0800 h1         1 INB       0.049700
     52 H11          0.5440     2.7370    -2.3220 h1         1 INB       0.016200
     53 H12          1.4630     1.2100    -2.3980 h1         1 INB       0.016200
     54 H21         -0.4640     0.0500    -1.2340 hc         1 INB       0.049200
     55 H22         -1.2780     1.6080    -1.0740 hc         1 INB       0.049200
     56 H31          0.6430     2.4600     0.3120 hc         1 INB       0.036200
     57 H32          1.4540     0.9020     0.1390 hc         1 INB       0.036200
     58 H41         -0.5050    -0.2150     1.2900 hc         1 INB       0.037700
     59 H42         -1.2520     1.3660     1.5140 hc         1 INB       0.037700
     60 H51          0.7220     2.0950     2.8970 hc         1 INB       0.036200
     61 H52          1.4580     0.5080     2.6710 hc         1 INB       0.036200
     62 H61         -0.5270    -0.5530     3.8220 hc         1 INB       0.036700
     63 H62         -1.2110     1.0510     4.0870 hc         1 INB       0.036700
     64 H71          0.8140     1.6730     5.4550 hc         1 INB       0.036700
     65 H72          1.4750     0.0590     5.1950 hc         1 INB       0.036700
     66 H81         -0.5360    -0.9330     6.3570 hc         1 INB       0.036700
     67 H82         -1.1510     0.6950     6.6510 hc         1 INB       0.036700
     68 H91          0.9140     1.2170     8.0000 hc         1 INB       0.036700
     69 H92          1.5020    -0.4230     7.7180 hc         1 INB       0.036700
     70 H101        -0.5360    -1.3370     8.8940 hc         1 INB       0.036700
     71 H102        -1.0830     0.3120     9.2020 hc         1 INB       0.036700
     72 H111         1.0160     0.7430    10.5340 hc         1 INB       0.036700
     73 H112         1.5300    -0.9200    10.2410 hc         1 INB       0.036700
     74 H121        -0.5290    -1.7530    11.4340 hc         1 INB       0.036700
     75 H122        -1.0120    -0.0840    11.7460 hc         1 INB       0.036700
     76 H131         1.1080     0.2670    13.0670 hc         1 INB       0.036700
     77 H132         1.5590    -1.4130    12.7720 hc         1 INB       0.036700
     78 H141        -0.5210    -2.1700    13.9770 hc         1 INB       0.036700
     79 H142        -0.9460    -0.4860    14.2850 hc         1 INB       0.036700
     80 H151         1.1820    -0.1990    15.6010 hc         1 INB       0.036700
     81 H152         1.5840    -1.8920    15.3070 hc         1 INB       0.036700
     82 H161        -0.5070    -2.5900    16.5230 hc         1 INB       0.036700
     83 H162        -0.8900    -0.8950    16.8260 hc         1 INB       0.036700
     84 H171         1.2420    -0.6550    18.1440 hc         1 INB       0.036200
     85 H172         1.6120    -2.3540    17.8480 hc         1 INB       0.036200
     86 H181         0.6220    -2.0550    20.1120 hc         1 INB       0.031033
     87 H182        -0.8320    -1.3150    19.4060 hc         1 INB       0.031033
     88 H183        -0.4660    -3.0300    19.1010 hc         1 INB       0.031033
@<TRIPOS>BOND
     1     1     2 1   
     2     1     4 1   
     3     1    36 1   
     4     1    37 1   
     5     2     3 1   
     6     2     6 1   
     7     2    38 1   
     8     3     5 1   
     9     3    39 1   
    10     3    40 1   
    11     4    18 1   
    12     5    10 1   
    13     6     7 1   
    14     6    41 1   
    15     7     8 2   
    16     7     9 1   
    17     9    42 1   
    18     9    43 1   
    19     9    44 1   
    20    10    11 1   
    21    10    12 1   
    22    10    13 1   
    23    13    14 1   
    24    14    15 1   
    25    14    45 1   
    26    14    46 1   
    27    15    16 1   
    28    15    47 1   
    29    15    48 1   
    30    16    17 1   
    31    17    49 1   
    32    17    50 1   
    33    17    51 1   
    34    18    19 1   
    35    18    52 1   
    36    18    53 1   
    37    19    20 1   
    38    19    54 1   
    39    19    55 1   
    40    20    21 1   
    41    20    56 1   
    42    20    57 1   
    43    21    22 1   
    44    21    58 1   
    45    21    59 1   
    46    22    23 1   
    47    22    60 1   
    48    22    61 1   
    49    23    24 1   
    50    23    62 1   
    51    23    63 1   
    52    24    25 1   
    53    24    64 1   
    54    24    65 1   
    55    25    26 1   
    56    25    66 1   
    57    25    67 1   
    58    26    27 1   
    59    26    68 1   
    60    26    69 1   
    61    27    28 1   
    62    27    70 1   
    63    27    71 1   
    64    28    29 1   
    65    28    72 1   
    66    28    73 1   
    67    29    30 1   
    68    29    74 1   
    69    29    75 1   
    70    30    31 1   
    71    30    76 1   
    72    30    77 1   
    73    31    32 1   
    74    31    78 1   
    75    31    79 1   
    76    32    33 1   
    77    32    80 1   
    78    32    81 1   
    79    33    34 1   
    80    33    82 1   
    81    33    83 1   
    82    34    35 1   
    83    34    84 1   
    84    34    85 1   
    85    35    86 1   
    86    35    87 1   
    87    35    88 1   
@<TRIPOS>SUBSTRUCTURE
     1 INB         1 TEMP              0 ****  ****    0 ROOT
