@<TRIPOS>MOLECULE
INC
   31    30     1     0     0
SMALL
No Charge or Current Charge


@<TRIPOS>ATOM
      1 CA1         -3.4670    -0.2020    -1.1570 c3         1 INC      -0.166100
      2 C1          -2.1260    -0.5020    -0.4860 c          1 INC       0.612100
      3 O1          -1.9110    -1.6040     0.0030 o          1 INC      -0.580100
      4 N2          -1.1390     0.5270    -0.4800 n          1 INC      -0.273300
      5 OH2         -1.4060     1.8070    -1.0970 oh         1 INC      -0.420100
      6 CA2          0.1830     0.4050     0.2070 c3         1 INC       0.060700
      7 CB2          1.1690    -0.5160    -0.5780 c3         1 INC      -0.061400
      8 CG2          1.4000    -0.1480    -2.0720 c3         1 INC      -0.057700
      9 CD1          2.0340     1.2530    -2.2510 c3         1 INC      -0.090600
     10 CD2          2.2530    -1.2250    -2.7790 c3         1 INC      -0.090600
     11 C2           0.0900     0.0510     1.7210 c          1 INC       0.575100
     12 O2          -0.9540     0.0320     2.3640 o          1 INC      -0.496000
     13 O3           1.3320    -0.0640     2.2960 os         1 INC      -0.431100
     14 C3           1.4060    -0.3350     3.7090 c3         1 INC       0.150900
     15 HA11        -3.2850     0.1380    -2.1830 hc         1 INC       0.067033
     16 HA12        -4.1510    -1.0570    -1.1320 hc         1 INC       0.067033
     17 HA13        -3.9120     0.6840    -0.6900 hc         1 INC       0.067033
     18 HO2         -1.8280     2.3550    -0.3970 ho         1 INC       0.438000
     19 HA2          0.6370     1.4030     0.2120 h1         1 INC       0.086700
     20 HB21         2.1430    -0.5180    -0.0730 hc         1 INC       0.065200
     21 HB22         0.7960    -1.5460    -0.5200 hc         1 INC       0.065200
     22 HG2          0.4260    -0.1350    -2.5770 hc         1 INC       0.057700
     23 HD11         2.2080     1.4650    -3.3130 hc         1 INC       0.034033
     24 HD12         1.3780     2.0400    -1.8620 hc         1 INC       0.034033
     25 HD13         2.9970     1.3160    -1.7290 hc         1 INC       0.034033
     26 HD21         3.2510    -1.2930    -2.3290 hc         1 INC       0.034033
     27 HD22         1.7760    -2.2100    -2.7040 hc         1 INC       0.034033
     28 HD23         2.3720    -0.9900    -3.8440 hc         1 INC       0.034033
     29 H31          2.4530    -0.4100     4.0290 h1         1 INC       0.051033
     30 H32          0.9310     0.4690     4.2870 h1         1 INC       0.051033
     31 H33          0.9070    -1.2810     3.9530 h1         1 INC       0.051033
@<TRIPOS>BOND
     1     1     2 1   
     2     1    15 1   
     3     1    16 1   
     4     1    17 1   
     5     2     3 2   
     6     2     4 1   
     7     4     5 1   
     8     4     6 1   
     9     5    18 1   
    10     6     7 1   
    11     6    11 1   
    12     6    19 1   
    13     7     8 1   
    14     7    20 1   
    15     7    21 1   
    16     8     9 1   
    17     8    10 1   
    18     8    22 1   
    19     9    23 1   
    20     9    24 1   
    21     9    25 1   
    22    10    26 1   
    23    10    27 1   
    24    10    28 1   
    25    11    12 2   
    26    11    13 1   
    27    13    14 1   
    28    14    29 1   
    29    14    30 1   
    30    14    31 1   
@<TRIPOS>SUBSTRUCTURE
     1 INC         1 TEMP              0 ****  ****    0 ROOT
