@<TRIPOS>MOLECULE
INC
   31    30     1     0     0
SMALL
abcg2


@<TRIPOS>ATOM
      1 CA1         -3.2440    -0.0960    -1.0810 c3         1 INC      -0.166100
      2 C1          -1.8730    -0.4100    -0.5490 c          1 INC       0.612100
      3 O1          -1.5300    -1.5280    -0.1990 o          1 INC      -0.580100
      4 N2          -0.9920     0.6200    -0.4870 n          1 INC      -0.273300
      5 OH2         -1.4450     1.8900    -0.7270 oh         1 INC      -0.420100
      6 CA2          0.3000     0.5020     0.1500 c3         1 INC       0.060700
      7 CB2          1.2760    -0.4480    -0.5540 c3         1 INC      -0.061400
      8 CG2          1.3550    -0.2570    -2.0690 c3         1 INC      -0.057700
      9 CD1          1.7520     1.1640    -2.4550 c3         1 INC      -0.090600
     10 CD2          2.3420    -1.2640    -2.6530 c3         1 INC      -0.090600
     11 C2           0.0900     0.2210     1.6360 c          1 INC       0.575100
     12 O2          -0.9380     0.4640     2.2150 o          1 INC      -0.496000
     13 O3           1.1740    -0.2560     2.2150 os         1 INC      -0.431100
     14 C3           1.1220    -0.4940     3.6240 c3         1 INC       0.150900
     15 HA11        -3.2000     0.4030    -2.0490 hc         1 INC       0.067033
     16 HA12        -3.8030    -1.0220    -1.1850 hc         1 INC       0.067033
     17 HA13        -3.7900     0.5600    -0.4020 hc         1 INC       0.067033
     18 HO2         -1.7950     2.2270     0.1110 ho         1 INC       0.438000
     19 HA2          0.7330     1.5070     0.1100 h1         1 INC       0.086700
     20 HB21         2.2690    -0.2690    -0.1330 hc         1 INC       0.065200
     21 HB22         1.0220    -1.4840    -0.3340 hc         1 INC       0.065200
     22 HG2          0.3710    -0.4690    -2.4990 hc         1 INC       0.057700
     23 HD11         1.8720     1.2530    -3.5360 hc         1 INC       0.034033
     24 HD12         1.0090     1.9030    -2.1530 hc         1 INC       0.034033
     25 HD13         2.7030     1.4410    -1.9930 hc         1 INC       0.034033
     26 HD21         3.3560    -1.0760    -2.2910 hc         1 INC       0.034033
     27 HD22         2.0770    -2.2870    -2.3830 hc         1 INC       0.034033
     28 HD23         2.3640    -1.2020    -3.7430 hc         1 INC       0.034033
     29 H31          2.1080    -0.8520     3.9010 h1         1 INC       0.051033
     30 H32          0.8980     0.4200     4.1730 h1         1 INC       0.051033
     31 H33          0.3780    -1.2520     3.8680 h1         1 INC       0.051033
@<TRIPOS>BOND
     1     1     2 1   
     2     1    15 1   
     3     1    16 1   
     4     1    17 1   
     5     2     3 2   
     6     2     4 1   
     7     4     5 1   
     8     4     6 1   
     9     5    18 1   
    10     6     7 1   
    11     6    11 1   
    12     6    19 1   
    13     7     8 1   
    14     7    20 1   
    15     7    21 1   
    16     8     9 1   
    17     8    10 1   
    18     8    22 1   
    19     9    23 1   
    20     9    24 1   
    21     9    25 1   
    22    10    26 1   
    23    10    27 1   
    24    10    28 1   
    25    11    12 2   
    26    11    13 1   
    27    13    14 1   
    28    14    29 1   
    29    14    30 1   
    30    14    31 1   
@<TRIPOS>SUBSTRUCTURE
     1 INC         1 TEMP              0 ****  ****    0 ROOT
