@<TRIPOS>MOLECULE
IND
   16    17     1     0     0
SMALL
bcc


@<TRIPOS>ATOM
      1 N1          -1.0510    -0.0250     1.5400 na         1 IND      -0.175400
      2 C2           0.0470    -0.0200     2.3520 cc         1 IND      -0.115100
      3 C3           1.1830    -0.0120     1.5930 cd         1 IND      -0.190200
      4 C4           1.4330    -0.0030    -1.0030 ca         1 IND      -0.078000
      5 C5           0.6930    -0.0030    -2.1690 ca         1 IND      -0.160000
      6 C6          -0.7120    -0.0110    -2.1370 ca         1 IND      -0.111000
      7 C7          -1.4020    -0.0190    -0.9400 ca         1 IND      -0.147000
      8 C8          -0.6510    -0.0180     0.2350 ca         1 IND      -0.050200
      9 C9           0.7620    -0.0110     0.2270 ca         1 IND      -0.098800
     10 HN1         -2.0050    -0.0290     1.8610 hn         1 IND       0.296700
     11 H2          -0.0670    -0.0240     3.4240 h4         1 IND       0.160000
     12 H3           2.1950    -0.0080     1.9650 ha         1 IND       0.154000
     13 H4           2.5150     0.0030    -1.0400 ha         1 IND       0.131000
     14 H5           1.2000     0.0030    -3.1260 ha         1 IND       0.127000
     15 H6          -1.2650    -0.0090    -3.0670 ha         1 IND       0.127000
     16 H7          -2.4840    -0.0260    -0.9180 ha         1 IND       0.129000
@<TRIPOS>BOND
     1     1     2 1   
     2     1     8 1   
     3     1    10 1   
     4     2     3 2   
     5     2    11 1   
     6     3     9 1   
     7     3    12 1   
     8     4     5 ar  
     9     4     9 ar  
    10     4    13 1   
    11     5     6 ar  
    12     5    14 1   
    13     6     7 ar  
    14     6    15 1   
    15     7     8 ar  
    16     7    16 1   
    17     8     9 ar  
@<TRIPOS>SUBSTRUCTURE
     1 IND         1 TEMP              0 ****  ****    0 ROOT
