@<TRIPOS>MOLECULE
IND
   16    17     1     0     0
SMALL
No Charge or Current Charge


@<TRIPOS>ATOM
      1 N1          -1.0620    -0.0240     1.5580 na         1 IND      -0.225700
      2 C2           0.0530    -0.0210     2.4270 cc         1 IND      -0.165100
      3 C3           1.1500    -0.0120     1.5770 cd         1 IND      -0.240200
      4 C4           1.4470    -0.0030    -1.0000 ca         1 IND      -0.060000
      5 C5           0.7050    -0.0030    -2.2020 ca         1 IND      -0.142000
      6 C6          -0.7120    -0.0110    -2.1710 ca         1 IND      -0.093000
      7 C7          -1.4020    -0.0180    -0.9370 ca         1 IND      -0.129000
      8 C8          -0.6390    -0.0180     0.2380 ca         1 IND      -0.050200
      9 C9           0.7270    -0.0100     0.2010 ca         1 IND      -0.098800
     10 HN1         -2.0350    -0.0300     1.8530 hn         1 IND       0.347000
     11 H2          -0.0260    -0.0250     3.5120 h4         1 IND       0.210000
     12 H3           2.1860    -0.0080     1.9100 ha         1 IND       0.204000
     13 H4           2.5340     0.0030    -1.0060 ha         1 IND       0.113000
     14 H5           1.2250     0.0030    -3.1570 ha         1 IND       0.109000
     15 H6          -1.2730    -0.0110    -3.1030 ha         1 IND       0.109000
     16 H7          -2.4890    -0.0240    -0.9030 ha         1 IND       0.111000
@<TRIPOS>BOND
     1     1     2 1   
     2     1     8 1   
     3     1    10 1   
     4     2     3 2   
     5     2    11 1   
     6     3     9 1   
     7     3    12 1   
     8     4     5 ar  
     9     4     9 ar  
    10     4    13 1   
    11     5     6 ar  
    12     5    14 1   
    13     6     7 ar  
    14     6    15 1   
    15     7     8 ar  
    16     7    16 1   
    17     8     9 ar  
@<TRIPOS>SUBSTRUCTURE
     1 IND         1 TEMP              0 ****  ****    0 ROOT
