@<TRIPOS>MOLECULE
INE
   17    18     1     0     0
SMALL
abcg2


@<TRIPOS>ATOM
      1 N1          -0.6380     1.5880    -0.0010 na         1 INE      -0.025400
      2 N2           0.6930     1.7010     0.0060 nc         1 INE      -0.464100
      3 C3           1.1620     0.4900     0.0220 cd         1 INE       0.310900
      4 C4           0.0630    -1.8700     0.0400 ca         1 INE       0.028000
      5 C5          -1.1770    -2.4730     0.0370 ca         1 INE      -0.168000
      6 C6          -2.3490    -1.7090     0.0210 ca         1 INE       0.013000
      7 C7          -2.3000    -0.3300     0.0080 ca         1 INE      -0.211200
      8 C8          -1.0470     0.3060     0.0100 ca         1 INE       0.015800
      9 C9           0.1230    -0.4780     0.0250 ca         1 INE      -0.234900
     10 N10         -3.5100     0.4430    -0.0080 no         1 INE       0.710200
     11 O11         -4.5720    -0.1320    -0.0110 o          1 INE      -0.408500
     12 O12         -3.3920     1.6510    -0.0160 o          1 INE      -0.408500
     13 BR           2.9840     0.1420     0.0370 br         1 INE       0.009700
     14 H11         -1.2060     2.4200    -0.0140 hn         1 INE       0.411000
     15 H41          0.9670    -2.4650     0.0540 ha         1 INE       0.138000
     16 H51         -1.2560    -3.5500     0.0480 ha         1 INE       0.134000
     17 H61         -3.3050    -2.2120     0.0200 ha         1 INE       0.152000
@<TRIPOS>BOND
     1     1     2 1   
     2     1     8 1   
     3     1    14 1   
     4     2     3 2   
     5     3     9 1   
     6     3    13 1   
     7     4     5 ar  
     8     4     9 ar  
     9     4    15 1   
    10     5     6 ar  
    11     5    16 1   
    12     6     7 ar  
    13     6    17 1   
    14     7     8 ar  
    15     7    10 1   
    16     8     9 ar  
    17    10    11 1   
    18    10    12 1   
@<TRIPOS>SUBSTRUCTURE
     1 INE         1 TEMP              0 ****  ****    0 ROOT
