@<TRIPOS>MOLECULE
INE
   17    18     1     0     0
SMALL
No Charge or Current Charge


@<TRIPOS>ATOM
      1 N1          -0.6420     1.6140    -0.0010 na         1 INE      -0.025400
      2 N2           0.7610     1.7310     0.0070 nc         1 INE      -0.464100
      3 C3           1.2080     0.4680     0.0230 cd         1 INE       0.310900
      4 C4           0.0940    -1.8670     0.0400 ca         1 INE       0.028000
      5 C5          -1.1660    -2.4980     0.0380 ca         1 INE      -0.168000
      6 C6          -2.3570    -1.7330     0.0220 ca         1 INE       0.013000
      7 C7          -2.3070    -0.3130     0.0080 ca         1 INE      -0.211200
      8 C8          -1.0250     0.2810     0.0100 ca         1 INE       0.015800
      9 C9           0.1100    -0.4680     0.0250 ca         1 INE      -0.234900
     10 N10         -3.5720     0.4910    -0.0090 no         1 INE       0.710200
     11 O11         -4.6490    -0.1180    -0.0100 o          1 INE      -0.408500
     12 O12         -3.4870     1.7270    -0.0210 o          1 INE      -0.408500
     13 Br           3.0530     0.0720     0.0390 br         1 INE       0.009700
     14 H11         -1.2620     2.4230    -0.0140 hn         1 INE       0.411000
     15 H41          1.0150    -2.4470     0.0520 ha         1 INE       0.138000
     16 H51         -1.2230    -3.5840     0.0490 ha         1 INE       0.134000
     17 H61         -3.3130    -2.2550     0.0210 ha         1 INE       0.152000
@<TRIPOS>BOND
     1     1     2 1   
     2     1     8 1   
     3     1    14 1   
     4     2     3 2   
     5     3     9 1   
     6     3    13 1   
     7     4     5 ar  
     8     4     9 ar  
     9     4    15 1   
    10     5     6 ar  
    11     5    16 1   
    12     6     7 ar  
    13     6    17 1   
    14     7     8 ar  
    15     7    10 1   
    16     8     9 ar  
    17    10    11 1   
    18    10    12 1   
@<TRIPOS>SUBSTRUCTURE
     1 INE         1 TEMP              0 ****  ****    0 ROOT
