@<TRIPOS>MOLECULE
INF
   27    27     1     0     0
SMALL
abcg2


@<TRIPOS>ATOM
      1 N            0.0700    -0.4450    -1.1350 ns         1 INF      -0.486900
      2 CA          -1.2180     0.0890    -0.7750 c3         1 INF      -0.026300
      3 C           -2.2720    -0.2640    -1.8530 c          1 INF       0.716000
      4 O           -3.3710     0.3060    -1.7300 o          1 INF      -0.722000
      5 CB          -1.7000    -0.4520     0.5870 c3         1 INF      -0.042100
      6 CG          -0.7070    -0.2220     1.6870 ca         1 INF      -0.047300
      7 CD1         -0.6780     0.9870     2.3790 ca         1 INF      -0.102000
      8 CD2          0.2340    -1.1940     2.0140 ca         1 INF      -0.102000
      9 CE1          0.2640     1.2200     3.3700 ca         1 INF      -0.116000
     10 CE2          1.1820    -0.9660     3.0030 ca         1 INF      -0.116000
     11 CZ           1.2020     0.2440     3.6830 ca         1 INF      -0.132000
     12 OXT         -1.9470    -1.1010    -2.7160 o          1 INF      -0.722000
     13 C1           1.2380     0.1930    -0.9270 c          1 INF       0.613100
     14 N2           2.3420    -0.5770    -1.2840 ns         1 INF      -0.344400
     15 O1           1.3530     1.3000    -0.4310 o          1 INF      -0.628100
     16 O2           3.4870     0.1500    -1.5340 oh         1 INF      -0.472100
     17 H            0.0390    -1.2820    -1.6980 hn         1 INF       0.328500
     18 HA          -1.1370     1.1750    -0.7030 h1         1 INF       0.067700
     19 HB1         -2.6500     0.0290     0.8280 hc         1 INF       0.054700
     20 HB2         -1.8980    -1.5230     0.4880 hc         1 INF       0.054700
     21 HD1         -1.4040     1.7560     2.1400 ha         1 INF       0.109500
     22 HD2          0.2220    -2.1430     1.4910 ha         1 INF       0.109500
     23 HE1          0.2680     2.1650     3.9000 ha         1 INF       0.093500
     24 HE2          1.9050    -1.7360     3.2440 ha         1 INF       0.093500
     25 HZ           1.9390     0.4220     4.4570 ha         1 INF       0.091000
     26 H2N          2.1950    -1.2510    -2.0250 hn         1 INF       0.282500
     27 H2O          4.0890    -0.0810    -0.8180 ho         1 INF       0.445000
@<TRIPOS>BOND
     1     1     2 1   
     2     1    13 1   
     3     1    17 1   
     4     2     3 1   
     5     2     5 1   
     6     2    18 1   
     7     3     4 1   
     8     3    12 1   
     9     5     6 1   
    10     5    19 1   
    11     5    20 1   
    12     6     7 ar  
    13     6     8 ar  
    14     7     9 ar  
    15     7    21 1   
    16     8    10 ar  
    17     8    22 1   
    18     9    11 ar  
    19     9    23 1   
    20    10    11 ar  
    21    10    24 1   
    22    11    25 1   
    23    13    14 1   
    24    13    15 2   
    25    14    16 1   
    26    14    26 1   
    27    16    27 1   
@<TRIPOS>SUBSTRUCTURE
     1 INF         1 TEMP              0 ****  ****    0 ROOT
