@<TRIPOS>MOLECULE
INF
   27    27     1     0     0
SMALL
No Charge or Current Charge


@<TRIPOS>ATOM
      1 N            0.0790    -0.3770    -1.2110 ns         1 INF      -0.486900
      2 CA          -1.2580     0.0840    -0.7550 c3         1 INF      -0.026300
      3 C           -2.3360    -0.1850    -1.8500 c          1 INF       0.716000
      4 O           -3.0250     0.7540    -2.2250 o          1 INF      -0.722000
      5 CB          -1.6620    -0.5610     0.5950 c3         1 INF      -0.042100
      6 CG          -0.6800    -0.2760     1.7260 ca         1 INF      -0.047300
      7 CD1         -0.7160     0.9600     2.4020 ca         1 INF      -0.102000
      8 CD2          0.2690    -1.2450     2.1100 ca         1 INF      -0.102000
      9 CE1          0.1850     1.2240     3.4480 ca         1 INF      -0.116000
     10 CE2          1.1700    -0.9810     3.1560 ca         1 INF      -0.116000
     11 CZ           1.1280     0.2530     3.8260 ca         1 INF      -0.132000
     12 OXT         -2.3940    -1.3000    -2.3520 o          1 INF      -0.722000
     13 C1           1.2570     0.3100    -1.0410 c          1 INF       0.613100
     14 N2           2.3550    -0.3900    -1.5210 ns         1 INF      -0.344400
     15 O1           1.3280     1.4170    -0.5280 o          1 INF      -0.628100
     16 O2           3.6470     0.2470    -1.6650 oh         1 INF      -0.472100
     17 H            0.1330    -1.2750    -1.6740 hn         1 INF       0.328500
     18 HA          -1.2210     1.1710    -0.6140 h1         1 INF       0.067700
     19 HB1         -2.6580    -0.1940     0.8740 hc         1 INF       0.054700
     20 HB2         -1.7720    -1.6430     0.4560 hc         1 INF       0.054700
     21 HD1         -1.4420     1.7170     2.1140 ha         1 INF       0.109500
     22 HD2          0.3090    -2.2030     1.5960 ha         1 INF       0.109500
     23 HE1          0.1520     2.1800     3.9650 ha         1 INF       0.093500
     24 HE2          1.9000    -1.7330     3.4470 ha         1 INF       0.093500
     25 HZ           1.8250     0.4580     4.6350 ha         1 INF       0.091000
     26 H2N          2.2170    -1.2390    -2.0630 hn         1 INF       0.282500
     27 H2O          4.2580    -0.3760    -1.2050 ho         1 INF       0.445000
@<TRIPOS>BOND
     1     1     2 1   
     2     1    13 1   
     3     1    17 1   
     4     2     3 1   
     5     2     5 1   
     6     2    18 1   
     7     3     4 1   
     8     3    12 1   
     9     5     6 1   
    10     5    19 1   
    11     5    20 1   
    12     6     7 ar  
    13     6     8 ar  
    14     7     9 ar  
    15     7    21 1   
    16     8    10 ar  
    17     8    22 1   
    18     9    11 ar  
    19     9    23 1   
    20    10    11 ar  
    21    10    24 1   
    22    11    25 1   
    23    13    14 1   
    24    13    15 2   
    25    14    16 1   
    26    14    26 1   
    27    16    27 1   
@<TRIPOS>SUBSTRUCTURE
     1 INF         1 TEMP              0 ****  ****    0 ROOT
