@<TRIPOS>MOLECULE
ING
   26    26     1     0     0
SMALL
No Charge or Current Charge


@<TRIPOS>ATOM
      1 N            0.7100     0.3020    -1.2360 ns         1 ING      -0.462900
      2 CA          -0.7150    -0.0940    -1.1170 c3         1 ING      -0.041300
      3 C           -1.4740     0.1890    -2.4480 c          1 ING       0.709000
      4 O           -2.0140    -0.7510    -3.0150 o          1 ING      -0.721500
      5 CG          -0.7540     0.2830     1.4270 ca         1 ING      -0.038300
      6 CB          -1.4100     0.5940     0.0860 c3         1 ING      -0.036100
      7 CD1          0.1150     1.2140     2.0300 ca         1 ING      -0.110000
      8 CD2         -1.0190    -0.9370     2.0790 ca         1 ING      -0.110000
      9 CE1          0.7140     0.9260     3.2690 ca         1 ING      -0.119000
     10 CE2         -0.4210    -1.2250     3.3190 ca         1 ING      -0.119000
     11 CZ           0.4450    -0.2930     3.9140 ca         1 ING      -0.137000
     12 OXT         -1.4440     1.3220    -2.9100 o          1 ING      -0.721500
     13 C1           1.7760    -0.4330    -0.7890 c          1 ING       0.637100
     14 N1           2.9560     0.1780    -0.9800 nt         1 ING      -0.598000
     15 O1           1.6990    -1.5350    -0.2800 o          1 ING      -0.652100
     16 H            0.9190     1.1930    -1.6670 hn         1 ING       0.277500
     17 HA          -0.7600    -1.1790    -0.9570 h1         1 ING       0.069700
     18 HB1         -1.4260     1.6780    -0.0830 hc         1 ING       0.056700
     19 HB2         -2.4600     0.2800     0.1100 hc         1 ING       0.056700
     20 HD1          0.3300     2.1590     1.5370 ha         1 ING       0.111000
     21 HD2         -1.6880    -1.6640     1.6230 ha         1 ING       0.111000
     22 HE1          1.3860     1.6480     3.7290 ha         1 ING       0.095000
     23 HE2         -0.6290    -2.1690     3.8160 ha         1 ING       0.095000
     24 HZ           0.9080    -0.5150     4.8730 ha         1 ING       0.093000
     25 HN11         3.8010    -0.2860    -0.6860 hn         1 ING       0.276500
     26 HN12         2.9930     1.0910    -1.4060 hn         1 ING       0.276500
@<TRIPOS>BOND
     1     1     2 1   
     2     1    13 1   
     3     1    16 1   
     4     2     3 1   
     5     2     6 1   
     6     2    17 1   
     7     3     4 1   
     8     3    12 1   
     9     5     6 1   
    10     5     7 ar  
    11     5     8 ar  
    12     6    18 1   
    13     6    19 1   
    14     7     9 ar  
    15     7    20 1   
    16     8    10 ar  
    17     8    21 1   
    18     9    11 ar  
    19     9    22 1   
    20    10    11 ar  
    21    10    23 1   
    22    11    24 1   
    23    13    14 1   
    24    13    15 2   
    25    14    25 1   
    26    14    26 1   
@<TRIPOS>SUBSTRUCTURE
     1 ING         1 TEMP              0 ****  ****    0 ROOT
