@<TRIPOS>MOLECULE
ING
   26    26     1     0     0
SMALL
bcc


@<TRIPOS>ATOM
      1 N            0.8490     0.3190    -0.8900 ns         1 ING      -0.529900
      2 CA          -0.5040    -0.1790    -0.9140 c3         1 ING      -0.041300
      3 C           -1.1790    -0.0660    -2.3080 c          1 ING       0.919600
      4 O           -2.3270    -0.5480    -2.3800 o          1 ING      -0.826800
      5 CG          -0.8230     0.3020     1.5460 ca         1 ING      -0.038300
      6 CB          -1.3330     0.5430     0.1540 c3         1 ING      -0.036100
      7 CD1          0.0170     1.2140     2.1800 ca         1 ING      -0.128000
      8 CD2         -1.1600    -0.8680     2.2240 ca         1 ING      -0.128000
      9 CE1          0.5080     0.9660     3.4560 ca         1 ING      -0.137000
     10 CE2         -0.6730    -1.1230     3.4980 ca         1 ING      -0.137000
     11 CZ           0.1650    -0.2050     4.1200 ca         1 ING      -0.155000
     12 OXT         -0.5340     0.4830    -3.2180 o          1 ING      -0.826800
     13 C1           1.8530    -0.3750    -1.4890 c          1 ING       0.771100
     14 N1           2.9840     0.3500    -1.7380 nt         1 ING      -0.665000
     15 O1           1.7660    -1.5630    -1.7800 o          1 ING      -0.652100
     16 H            0.9310     1.3250    -0.9090 hn         1 ING       0.277500
     17 HA          -0.4750    -1.2390    -0.6490 h1         1 ING       0.069700
     18 HB1         -1.3490     1.6170    -0.0590 hc         1 ING       0.056700
     19 HB2         -2.3620     0.1930     0.0690 hc         1 ING       0.056700
     20 HD1          0.2880     2.1330     1.6750 ha         1 ING       0.129000
     21 HD2         -1.8160    -1.5890     1.7480 ha         1 ING       0.129000
     22 HE1          1.1580     1.6880     3.9320 ha         1 ING       0.113000
     23 HE2         -0.9520    -2.0360     4.0090 ha         1 ING       0.113000
     24 HZ           0.5450    -0.4000     5.1150 ha         1 ING       0.111000
     25 HN11         3.8220    -0.1820    -1.9070 hn         1 ING       0.276500
     26 HN12         3.1380     1.2150    -1.2460 hn         1 ING       0.276500
@<TRIPOS>BOND
     1     1     2 1   
     2     1    13 1   
     3     1    16 1   
     4     2     3 1   
     5     2     6 1   
     6     2    17 1   
     7     3     4 1   
     8     3    12 1   
     9     5     6 1   
    10     5     7 ar  
    11     5     8 ar  
    12     6    18 1   
    13     6    19 1   
    14     7     9 ar  
    15     7    20 1   
    16     8    10 ar  
    17     8    21 1   
    18     9    11 ar  
    19     9    22 1   
    20    10    11 ar  
    21    10    23 1   
    22    11    24 1   
    23    13    14 1   
    24    13    15 2   
    25    14    25 1   
    26    14    26 1   
@<TRIPOS>SUBSTRUCTURE
     1 ING         1 TEMP              0 ****  ****    0 ROOT
