@<TRIPOS>MOLECULE
INH
   69    70     1     0     0
SMALL
bcc


@<TRIPOS>ATOM
      1 C1         -20.1950    92.4210    79.7190 c3         1 INH      -0.055100
      2 C2         -20.1500    91.5990    81.0020 c3         1 INH       0.013500
      3 C3         -21.2430    92.0270    82.0240 c          1 INH       0.901600
      4 O4         -22.3500    92.3520    81.5500 o          1 INH      -0.835800
      5 O5         -20.9430    91.9590    83.2340 o          1 INH      -0.835800
      6 N6         -18.8020    91.5300    81.5550 n7         1 INH      -0.785200
      7 C7         -18.2300    92.8060    81.9440 c3         1 INH       0.127500
      8 C8         -17.4020    92.6450    83.2210 c3         1 INH      -0.086400
      9 C9         -16.7920    93.9480    83.7340 c3         1 INH      -0.038100
     10 C10        -16.1170    93.7510    85.0630 ca         1 INH      -0.068300
     11 C11        -16.8090    93.9700    86.2520 ca         1 INH      -0.123000
     12 C12        -16.1990    93.7550    87.4810 ca         1 INH      -0.132000
     13 C13        -14.8840    93.3130    87.5390 ca         1 INH      -0.137000
     14 C14        -14.1840    93.0920    86.3600 ca         1 INH      -0.132000
     15 C15        -14.7970    93.3100    85.1340 ca         1 INH      -0.123000
     16 C16        -17.3250    93.3300    80.8290 c          1 INH       0.671100
     17 O17        -16.4470    92.6550    80.3120 o          1 INH      -0.592100
     18 N18        -17.5390    94.6060    80.4610 ns         1 INH      -0.584900
     19 C19        -16.7850    95.2270    79.4070 c3         1 INH       0.049700
     20 C20        -17.3790    96.5940    79.0630 c3         1 INH      -0.085400
     21 C21        -18.7940    96.4890    78.5100 c3         1 INH      -0.098400
     22 C22        -19.3370    97.8540    78.1200 c3         1 INH       0.029300
     23 N23        -20.7100    97.7160    77.6630 nu         1 INH      -0.400100
     24 C24        -21.4250    98.6830    77.1040 cz         1 INH       0.529300
     25 N25        -22.6640    98.4330    76.6980 nv         1 INH      -0.515700
     26 N26        -20.9050    99.8910    76.9330 nv         1 INH      -0.515700
     27 C27        -15.3220    95.4010    79.8240 c          1 INH       0.666100
     28 O28        -15.0170    95.7230    80.9560 o          1 INH      -0.564100
     29 N29        -14.4460    95.2160    78.8090 ns         1 INH      -0.465100
     30 C30        -13.0520    95.3430    78.8040 ca         1 INH       0.074600
     31 C31        -12.4010    95.0730    77.5970 ca         1 INH      -0.167500
     32 C32        -11.0230    95.1650    77.5010 ca         1 INH      -0.101500
     33 C33        -10.2640    95.5270    78.6060 ca         1 INH      -0.155000
     34 C34        -10.9090    95.7960    79.8030 ca         1 INH      -0.101500
     35 C35        -12.2910    95.7080    79.9160 ca         1 INH      -0.167500
     36 H36        -20.0700    93.4900    79.9030 hc         1 INH       0.009700
     37 H37        -19.4120    92.1070    79.0270 hc         1 INH       0.009700
     38 H38        -21.1530    92.2930    79.2210 hc         1 INH       0.009700
     39 H39        -20.4010    90.5670    80.7210 h1         1 INH       0.055700
     40 H40        -18.8550    90.9530    82.3850 hn         1 INH       0.381800
     41 H41        -19.0040    93.5580    82.1530 h1         1 INH       0.047700
     42 H42        -18.0660    92.2370    83.9880 hc         1 INH       0.069200
     43 H43        -16.6170    91.9010    83.0530 hc         1 INH       0.069200
     44 H44        -16.0730    94.3430    83.0140 hc         1 INH       0.047200
     45 H45        -17.5810    94.7000    83.8340 hc         1 INH       0.047200
     46 H46        -17.8350    94.3170    86.2150 ha         1 INH       0.133500
     47 H47        -16.7520    93.9360    88.3950 ha         1 INH       0.124000
     48 H48        -14.4060    93.1470    88.4960 ha         1 INH       0.122000
     49 H49        -13.1560    92.7520    86.3950 ha         1 INH       0.124000
     50 H50        -14.2430    93.1410    84.2170 ha         1 INH       0.133500
     51 H51        -18.2320    95.1490    80.9520 hn         1 INH       0.320500
     52 H52        -16.8370    94.5950    78.5130 h1         1 INH       0.066700
     53 H53        -17.3630    97.2300    79.9530 hc         1 INH       0.058200
     54 H54        -16.7330    97.0720    78.3220 hc         1 INH       0.058200
     55 H55        -18.8020    95.8320    77.6370 hc         1 INH       0.074200
     56 H56        -19.4630    96.0430    79.2510 hc         1 INH       0.074200
     57 H57        -19.2880    98.5320    78.9770 h1         1 INH       0.063200
     58 H58        -18.7230    98.2770    77.3220 h1         1 INH       0.063200
     59 H59        -21.1710    96.8360    77.8350 hn         1 INH       0.333700
     60 H60        -23.2510    99.1620    76.3270 hn         1 INH       0.327450
     61 H61        -23.0760    97.5210    76.8040 hn         1 INH       0.327450
     62 H62        -19.9990   100.1370    77.2930 hn         1 INH       0.327450
     63 H63        -21.4370   100.6270    76.4970 hn         1 INH       0.327450
     64 H64        -14.8460    94.9300    77.9280 hn         1 INH       0.313500
     65 H65        -12.9790    94.7890    76.7250 ha         1 INH       0.144500
     66 H66        -10.5430    94.9490    76.5550 ha         1 INH       0.131000
     67 H67         -9.1870    95.5980    78.5330 ha         1 INH       0.133000
     68 H68        -10.3340    96.0800    80.6750 ha         1 INH       0.131000
     69 H69        -12.7590    95.9220    80.8620 ha         1 INH       0.144500
@<TRIPOS>BOND
     1     1     2 1   
     2     1    36 1   
     3     1    37 1   
     4     1    38 1   
     5     2     3 1   
     6     2     6 1   
     7     2    39 1   
     8     3     4 1   
     9     3     5 1   
    10     6     7 1   
    11     6    40 1   
    12     7     8 1   
    13     7    16 1   
    14     7    41 1   
    15     8     9 1   
    16     8    42 1   
    17     8    43 1   
    18     9    10 1   
    19     9    44 1   
    20     9    45 1   
    21    10    11 ar  
    22    10    15 ar  
    23    11    12 ar  
    24    11    46 1   
    25    12    13 ar  
    26    12    47 1   
    27    13    14 ar  
    28    13    48 1   
    29    14    15 ar  
    30    14    49 1   
    31    15    50 1   
    32    16    17 2   
    33    16    18 1   
    34    18    19 1   
    35    18    51 1   
    36    19    20 1   
    37    19    27 1   
    38    19    52 1   
    39    20    21 1   
    40    20    53 1   
    41    20    54 1   
    42    21    22 1   
    43    21    55 1   
    44    21    56 1   
    45    22    23 1   
    46    22    57 1   
    47    22    58 1   
    48    23    24 2   
    49    23    59 1   
    50    24    25 1   
    51    24    26 1   
    52    25    60 1   
    53    25    61 1   
    54    26    62 1   
    55    26    63 1   
    56    27    28 2   
    57    27    29 1   
    58    29    30 1   
    59    29    64 1   
    60    30    31 ar  
    61    30    35 ar  
    62    31    32 ar  
    63    31    65 1   
    64    32    33 ar  
    65    32    66 1   
    66    33    34 ar  
    67    33    67 1   
    68    34    35 ar  
    69    34    68 1   
    70    35    69 1   
@<TRIPOS>SUBSTRUCTURE
     1 INH         1 TEMP              0 ****  ****    0 ROOT
