@<TRIPOS>MOLECULE
INH
   69    70     1     0     0
SMALL
No Charge or Current Charge


@<TRIPOS>ATOM
      1 C1         -20.5610    92.8500    80.0050 c3         1 INH      -0.055100
      2 C2         -20.8320    92.9570    81.5270 c3         1 INH       0.013500
      3 C3         -21.3450    94.3880    81.9650 c          1 INH       0.691000
      4 O4         -20.7940    95.3850    81.5180 o          1 INH      -0.730500
      5 O5         -22.2670    94.4420    82.7690 o          1 INH      -0.730500
      6 N6         -19.6840    92.4030    82.3390 n7         1 INH      -0.840400
      7 C7         -18.4690    93.2730    82.5200 c3         1 INH       0.127500
      8 C8         -17.6080    92.6770    83.6640 c3         1 INH      -0.086400
      9 C9         -16.4050    93.5600    84.0730 c3         1 INH      -0.038100
     10 C10        -15.6320    92.9630    85.2410 ca         1 INH      -0.068300
     11 C11        -15.9530    93.3210    86.5650 ca         1 INH      -0.105000
     12 C12        -15.2400    92.7660    87.6420 ca         1 INH      -0.114000
     13 C13        -14.2030    91.8490    87.4020 ca         1 INH      -0.119000
     14 C14        -13.8800    91.4860    86.0830 ca         1 INH      -0.114000
     15 C15        -14.5920    92.0420    85.0060 ca         1 INH      -0.105000
     16 C16        -17.6040    93.5130    81.2270 c          1 INH       0.604100
     17 O17        -16.9240    92.6400    80.6960 o          1 INH      -0.592100
     18 N18        -17.6130    94.8060    80.7410 ns         1 INH      -0.517900
     19 C19        -16.7850    95.2760    79.6070 c3         1 INH       0.049700
     20 C20        -17.4490    96.4840    78.8950 c3         1 INH      -0.085400
     21 C21        -18.8250    96.1650    78.2620 c3         1 INH      -0.098400
     22 C22        -19.4130    97.3540    77.4820 c3         1 INH       0.058600
     23 N23        -20.7150    96.9820    76.9020 nu         1 INH      -0.885000
     24 C24        -21.5280    97.7050    76.1620 cz         1 INH       0.934600
     25 N25        -22.6430    97.1830    75.7490 nv         1 INH      -0.616300
     26 N26        -21.2210    98.9280    75.8420 nv         1 INH      -0.616300
     27 C27        -15.3350    95.6120    80.0780 c          1 INH       0.599100
     28 O28        -15.0470    95.7800    81.2600 o          1 INH      -0.564100
     29 N29        -14.4190    95.7010    79.0350 ns         1 INH      -0.139000
     30 C30        -13.0220    95.9670    79.0030 ca         1 INH      -0.018000
     31 C31        -12.4100    96.0730    77.7390 ca         1 INH      -0.149500
     32 C32        -11.0340    96.3330    77.6260 ca         1 INH      -0.083500
     33 C33        -10.2520    96.4860    78.7810 ca         1 INH      -0.137000
     34 C34        -10.8480    96.3790    80.0480 ca         1 INH      -0.083500
     35 C35        -12.2260    96.1200    80.1610 ca         1 INH      -0.149500
     36 H36        -19.7850    93.5440    79.6720 hc         1 INH       0.009700
     37 H37        -20.2520    91.8330    79.7360 hc         1 INH       0.009700
     38 H38        -21.4750    93.0820    79.4450 hc         1 INH       0.009700
     39 H39        -21.6910    92.2940    81.6980 h1         1 INH       0.055700
     40 H40        -20.0530    92.2110    83.2800 hn         1 INH       0.437000
     41 H41        -18.7880    94.2630    82.8700 h1         1 INH       0.047700
     42 H42        -18.2390    92.5240    84.5480 hc         1 INH       0.069200
     43 H43        -17.2410    91.6870    83.3640 hc         1 INH       0.069200
     44 H44        -15.7330    93.6910    83.2160 hc         1 INH       0.047200
     45 H45        -16.7660    94.5630    84.3340 hc         1 INH       0.047200
     46 H46        -16.7560    94.0290    86.7600 ha         1 INH       0.115500
     47 H47        -15.4930    93.0460    88.6630 ha         1 INH       0.106000
     48 H48        -13.6520    91.4190    88.2350 ha         1 INH       0.104000
     49 H49        -13.0780    90.7750    85.8960 ha         1 INH       0.106000
     50 H50        -14.3370    91.7540    83.9880 ha         1 INH       0.115500
     51 H51        -18.2330    95.4620    81.2040 hn         1 INH       0.320500
     52 H52        -16.6990    94.4590    78.8790 h1         1 INH       0.066700
     53 H53        -17.5600    97.3100    79.6080 hc         1 INH       0.058200
     54 H54        -16.7810    96.8430    78.1020 hc         1 INH       0.058200
     55 H55        -18.7220    95.3050    77.5880 hc         1 INH       0.074200
     56 H56        -19.5310    95.8750    79.0500 hc         1 INH       0.074200
     57 H57        -19.5290    98.2090    78.1640 h1         1 INH       0.063200
     58 H58        -18.7110    97.6440    76.6860 h1         1 INH       0.063200
     59 H59        -21.0430    96.0470    77.1190 hn         1 INH       0.384000
     60 H60        -23.2930    97.6990    75.1790 hn         1 INH       0.377750
     61 H61        -22.8970    96.2360    75.9740 hn         1 INH       0.377750
     62 H62        -20.3610    99.3400    76.1590 hn         1 INH       0.377750
     63 H63        -21.8250    99.5040    75.2800 hn         1 INH       0.377750
     64 H64        -14.8210    95.5440    78.1200 hn         1 INH       0.147000
     65 H65        -13.0040    95.9560    76.8350 ha         1 INH       0.126500
     66 H66        -10.5740    96.4140    76.6430 ha         1 INH       0.113000
     67 H67         -9.1860    96.6870    78.6960 ha         1 INH       0.115000
     68 H68        -10.2420    96.4950    80.9440 ha         1 INH       0.113000
     69 H69        -12.6490    96.0380    81.1560 ha         1 INH       0.126500
@<TRIPOS>BOND
     1     1     2 1   
     2     1    36 1   
     3     1    37 1   
     4     1    38 1   
     5     2     3 1   
     6     2     6 1   
     7     2    39 1   
     8     3     4 1   
     9     3     5 1   
    10     6     7 1   
    11     6    40 1   
    12     7     8 1   
    13     7    16 1   
    14     7    41 1   
    15     8     9 1   
    16     8    42 1   
    17     8    43 1   
    18     9    10 1   
    19     9    44 1   
    20     9    45 1   
    21    10    11 ar  
    22    10    15 ar  
    23    11    12 ar  
    24    11    46 1   
    25    12    13 ar  
    26    12    47 1   
    27    13    14 ar  
    28    13    48 1   
    29    14    15 ar  
    30    14    49 1   
    31    15    50 1   
    32    16    17 2   
    33    16    18 1   
    34    18    19 1   
    35    18    51 1   
    36    19    20 1   
    37    19    27 1   
    38    19    52 1   
    39    20    21 1   
    40    20    53 1   
    41    20    54 1   
    42    21    22 1   
    43    21    55 1   
    44    21    56 1   
    45    22    23 1   
    46    22    57 1   
    47    22    58 1   
    48    23    24 2   
    49    23    59 1   
    50    24    25 1   
    51    24    26 1   
    52    25    60 1   
    53    25    61 1   
    54    26    62 1   
    55    26    63 1   
    56    27    28 2   
    57    27    29 1   
    58    29    30 1   
    59    29    64 1   
    60    30    31 ar  
    61    30    35 ar  
    62    31    32 ar  
    63    31    65 1   
    64    32    33 ar  
    65    32    66 1   
    66    33    34 ar  
    67    33    67 1   
    68    34    35 ar  
    69    34    68 1   
    70    35    69 1   
@<TRIPOS>SUBSTRUCTURE
     1 INH         1 TEMP              0 ****  ****    0 ROOT
