@<TRIPOS>MOLECULE
INI
   35    35     1     0     0
SMALL
No Charge or Current Charge


@<TRIPOS>ATOM
      1 N1          21.5430    37.6680   -34.3290 ns         1 INI      -0.548600
      2 C2          20.2960    37.3240   -34.7240 c          1 INI       0.635000
      3 O2          19.5880    38.0630   -35.3790 o          1 INI      -0.539000
      4 N3          19.9120    36.0930   -34.3270 ns         1 INI      -0.473500
      5 C4          20.6210    35.1950   -33.5990 c          1 INI       0.629200
      6 O4          20.1520    34.1030   -33.3280 o          1 INI      -0.494000
      7 C5          21.9470    35.6550   -33.2040 cc         1 INI      -0.494300
      8 N5          22.6770    34.6830   -32.4880 no         1 INI       0.715100
      9 O51         22.4590    34.5910   -31.2770 o          1 INI      -0.417000
     10 O52         23.6050    34.1230   -33.0770 o          1 INI      -0.417000
     11 C6          22.3670    36.8930   -33.5890 cd         1 INI       0.454600
     12 N7          23.5690    37.4480   -33.2960 nu         1 INI      -0.794200
     13 C8          24.4630    37.1540   -32.1540 c3         1 INI       0.229800
     14 C9          25.3780    38.3730   -31.8060 c3         1 INI       0.154300
     15 O9          24.5830    39.4830   -31.3410 oh         1 INI      -0.710000
     16 C10         26.2400    38.9020   -32.9970 c3         1 INI       0.142300
     17 O10         25.3820    39.5630   -33.9540 oh         1 INI      -0.746000
     18 C11         27.1000    37.8190   -33.7270 c3         1 INI       0.127300
     19 O11         27.9370    37.1350   -32.7730 oh         1 INI      -0.715000
     20 C12         27.9880    38.4260   -34.8590 c3         1 INI       0.118600
     21 O12         27.1870    39.1280   -35.8350 oh         1 INI      -0.738000
     22 HN1         21.8200    38.5950   -34.6100 hn         1 INI       0.463000
     23 HN3         18.9900    35.8050   -34.6120 hn         1 INI       0.351500
     24 HN7         23.8350    38.2780   -33.8340 hn         1 INI       0.531000
     25 H81         23.8750    36.9040   -31.2610 h1         1 INI       0.084700
     26 H82         25.0980    36.2870   -32.3810 h1         1 INI       0.084700
     27 H9          26.0610    38.0480   -31.0080 h1         1 INI       0.071700
     28 HO9         24.4860    40.0460   -32.1490 ho         1 INI       0.514000
     29 H10         26.9440    39.6380   -32.5830 h1         1 INI       0.047700
     30 HO1         25.9370    39.5700   -34.7940 ho         1 INI       0.543000
     31 H11         26.4160    37.0990   -34.1980 h1         1 INI       0.063700
     32 HO2         28.3990    36.4030   -33.2480 ho         1 INI       0.520000
     33 H121        28.7220    39.1110   -34.4110 h1         1 INI       0.040700
     34 H122        28.5460    37.6140   -35.3450 h1         1 INI       0.040700
     35 HO3         27.7770    39.3290   -36.6040 ho         1 INI       0.524000
@<TRIPOS>BOND
     1     1     2 1   
     2     1    11 1   
     3     1    22 1   
     4     2     3 2   
     5     2     4 1   
     6     4     5 1   
     7     4    23 1   
     8     5     6 2   
     9     5     7 1   
    10     7     8 1   
    11     7    11 2   
    12     8     9 1   
    13     8    10 1   
    14    11    12 1   
    15    12    13 1   
    16    12    24 1   
    17    13    14 1   
    18    13    25 1   
    19    13    26 1   
    20    14    15 1   
    21    14    16 1   
    22    14    27 1   
    23    15    28 1   
    24    16    17 1   
    25    16    18 1   
    26    16    29 1   
    27    17    30 1   
    28    18    19 1   
    29    18    20 1   
    30    18    31 1   
    31    19    32 1   
    32    20    21 1   
    33    20    33 1   
    34    20    34 1   
    35    21    35 1   
@<TRIPOS>SUBSTRUCTURE
     1 INI         1 TEMP              0 ****  ****    0 ROOT
