@<TRIPOS>MOLECULE
INI
   35    35     1     0     0
SMALL
abcg2


@<TRIPOS>ATOM
      1 N1          21.5820    37.5340   -34.5180 ns         1 INI      -0.548600
      2 C2          20.2400    37.3050   -34.7200 c          1 INI       0.635000
      3 O2          19.5730    38.0040   -35.4470 o          1 INI      -0.539000
      4 N3          19.7380    36.2560   -34.0100 ns         1 INI      -0.473500
      5 C4          20.4360    35.3870   -33.1800 c          1 INI       0.629200
      6 O4          19.8460    34.4610   -32.6630 o          1 INI      -0.494000
      7 C5          21.8470    35.6800   -33.0790 cc         1 INI      -0.494300
      8 N5          22.6800    34.6570   -32.5460 no         1 INI       0.715100
      9 O51         22.3000    34.0410   -31.5750 o          1 INI      -0.417000
     10 O52         23.7260    34.4130   -33.1210 o          1 INI      -0.417000
     11 C6          22.3990    36.8060   -33.7000 cd         1 INI       0.454600
     12 N7          23.6230    37.2810   -33.5490 nu         1 INI      -0.794200
     13 C8          24.5260    37.0460   -32.4350 c3         1 INI       0.229800
     14 C9          25.2820    38.3170   -32.0630 c3         1 INI       0.154300
     15 O9          24.3300    39.2620   -31.6330 oh         1 INI      -0.710000
     16 C10         26.1610    38.8900   -33.1850 c3         1 INI       0.142300
     17 O10         25.3140    39.3620   -34.2150 oh         1 INI      -0.746000
     18 C11         27.1780    37.8770   -33.7260 c3         1 INI       0.127300
     19 O11         27.9090    37.3910   -32.6260 oh         1 INI      -0.715000
     20 C12         28.1370    38.5070   -34.7350 c3         1 INI       0.118600
     21 O12         27.3990    38.9440   -35.8640 oh         1 INI      -0.738000
     22 HN1         21.9330    38.3950   -34.9190 hn         1 INI       0.463000
     23 HN3         18.7520    36.0640   -34.1300 hn         1 INI       0.351500
     24 HN7         23.9170    38.0510   -34.1470 hn         1 INI       0.531000
     25 H81         23.9530    36.7320   -31.5600 h1         1 INI       0.084700
     26 H82         25.2410    36.2540   -32.6590 h1         1 INI       0.084700
     27 H9          25.9480    38.0280   -31.2420 h1         1 INI       0.071700
     28 HO9         24.7940    40.0380   -31.3010 ho         1 INI       0.514000
     29 H10         26.7300    39.7300   -32.7510 h1         1 INI       0.047700
     30 HO1         25.8570    39.4590   -35.0160 ho         1 INI       0.543000
     31 H11         26.6290    37.0670   -34.2310 h1         1 INI       0.063700
     32 HO2         28.4380    36.6390   -32.9130 ho         1 INI       0.520000
     33 H121        28.6660    39.3380   -34.2550 h1         1 INI       0.040700
     34 H122        28.8870    37.7610   -35.0260 h1         1 INI       0.040700
     35 HO3         27.9290    39.5760   -36.3600 ho         1 INI       0.524000
@<TRIPOS>BOND
     1     1     2 1   
     2     1    11 1   
     3     1    22 1   
     4     2     3 2   
     5     2     4 1   
     6     4     5 1   
     7     4    23 1   
     8     5     6 2   
     9     5     7 1   
    10     7     8 1   
    11     7    11 2   
    12     8     9 1   
    13     8    10 1   
    14    11    12 1   
    15    12    13 1   
    16    12    24 1   
    17    13    14 1   
    18    13    25 1   
    19    13    26 1   
    20    14    15 1   
    21    14    16 1   
    22    14    27 1   
    23    15    28 1   
    24    16    17 1   
    25    16    18 1   
    26    16    29 1   
    27    17    30 1   
    28    18    19 1   
    29    18    20 1   
    30    18    31 1   
    31    19    32 1   
    32    20    21 1   
    33    20    33 1   
    34    20    34 1   
    35    21    35 1   
@<TRIPOS>SUBSTRUCTURE
     1 INI         1 TEMP              0 ****  ****    0 ROOT
