@<TRIPOS>MOLECULE
INK
   32    32     1     0     0
SMALL
No Charge or Current Charge


@<TRIPOS>ATOM
      1 P           -1.1840     0.2720     1.7880 p5         1 INK       1.131700
      2 Cl          -1.8580     0.6440     3.7330 cl         1 INK      -0.254300
      3 C1          -1.6130     1.6760     0.6990 c3         1 INK      -0.441100
      4 O1          -1.6600    -1.0570     1.3080 o          1 INK      -0.488000
      5 O2           0.4260     0.4260     1.9220 os         1 INK      -0.589400
      6 C2           1.3790    -0.2660     1.0830 c3         1 INK       0.230300
      7 C3           2.7740    -0.0060     1.7020 c3         1 INK      -0.083400
      8 C4           2.9360    -0.5440     3.1410 c3         1 INK      -0.093100
      9 C5           1.2900     0.2240    -0.3910 c3         1 INK       0.141600
     10 O3           0.2080    -0.4570    -1.0550 os         1 INK      -0.358100
     11 C6           0.1770     0.9440    -4.5010 ca         1 INK      -0.074500
     12 C7          -0.9190     0.2440    -5.0330 ca         1 INK      -0.143000
     13 C8          -1.6210    -0.6770    -4.2380 ca         1 INK      -0.074500
     14 C9          -1.2240    -0.8970    -2.9070 ca         1 INK      -0.169000
     15 C10         -0.1290    -0.2020    -2.3670 ca         1 INK       0.138100
     16 C11          0.5740     0.7240    -3.1690 ca         1 INK      -0.169000
     17 HC11        -2.6060     2.0440     0.9770 hc         1 INK       0.095367
     18 HC12        -0.8750     2.4740     0.8300 hc         1 INK       0.095367
     19 HC13        -1.6270     1.3460    -0.3440 hc         1 INK       0.095367
     20 HC2          1.1970    -1.3500     1.0990 h1         1 INK       0.074700
     21 HC31         2.9790     1.0720     1.6950 hc         1 INK       0.053700
     22 HC32         3.5370    -0.4760     1.0690 hc         1 INK       0.053700
     23 HC41         3.9550    -0.3650     3.5030 hc         1 INK       0.044367
     24 HC42         2.2400    -0.0480     3.8280 hc         1 INK       0.044367
     25 HC43         2.7450    -1.6240     3.1760 hc         1 INK       0.044367
     26 HC51         1.1460     1.3120    -0.4070 h1         1 INK       0.051200
     27 HC52         2.2360    -0.0010    -0.9010 h1         1 INK       0.051200
     28 HC7         -1.2250     0.4160    -6.0630 ha         1 INK       0.117000
     29 HC8         -2.4700    -1.2180    -4.6500 ha         1 INK       0.114500
     30 HC9         -1.7670    -1.6080    -2.2900 ha         1 INK       0.124000
     31 H11          1.4240     1.2770    -2.7810 ha         1 INK       0.124000
     32 HC6          0.7190     1.6570    -5.1190 ha         1 INK       0.114500
@<TRIPOS>BOND
     1     1     2 1   
     2     1     3 1   
     3     1     4 2   
     4     1     5 1   
     5     3    17 1   
     6     3    18 1   
     7     3    19 1   
     8     5     6 1   
     9     6     7 1   
    10     6     9 1   
    11     6    20 1   
    12     7     8 1   
    13     7    21 1   
    14     7    22 1   
    15     8    23 1   
    16     8    24 1   
    17     8    25 1   
    18     9    10 1   
    19     9    26 1   
    20     9    27 1   
    21    10    15 1   
    22    11    12 ar  
    23    11    16 ar  
    24    11    32 1   
    25    12    13 ar  
    26    12    28 1   
    27    13    14 ar  
    28    13    29 1   
    29    14    15 ar  
    30    14    30 1   
    31    15    16 ar  
    32    16    31 1   
@<TRIPOS>SUBSTRUCTURE
     1 INK         1 TEMP              0 ****  ****    0 ROOT
