@<TRIPOS>MOLECULE
INK
   32    32     1     0     0
SMALL
abcg2


@<TRIPOS>ATOM
      1 P           -1.0680     0.0560     1.7670 p5         1 INK       1.131700
      2 CL          -1.0470     0.2310     3.8200 cl         1 INK      -0.254300
      3 C1          -2.1590     1.3770     1.2610 c3         1 INK      -0.441100
      4 O1          -1.4340    -1.3220     1.3820 o          1 INK      -0.488000
      5 O2           0.3780     0.5820     1.3580 os         1 INK      -0.589400
      6 C2           1.4370    -0.2760     0.8820 c3         1 INK       0.230300
      7 C3           2.7260     0.0860     1.5930 c3         1 INK      -0.083400
      8 C4           2.6640    -0.1160     3.1000 c3         1 INK      -0.093100
      9 C5           1.5350    -0.0670    -0.6150 c3         1 INK       0.141600
     10 O3           0.3050    -0.4680    -1.1760 os         1 INK      -0.358100
     11 C6           0.5300     0.6710    -4.6550 ca         1 INK      -0.074500
     12 C7          -0.7640     0.4090    -5.0750 ca         1 INK      -0.143000
     13 C8          -1.6690    -0.1430    -4.1720 ca         1 INK      -0.074500
     14 C9          -1.2860    -0.4210    -2.8720 ca         1 INK      -0.169000
     15 C10          0.0200    -0.1540    -2.4560 ca         1 INK       0.138100
     16 C11          0.9330     0.3940    -3.3530 ca         1 INK      -0.169000
     17 HC11        -3.1530     1.2020     1.6690 hc         1 INK       0.095367
     18 HC12        -1.7940     2.3430     1.6030 hc         1 INK       0.095367
     19 HC13        -2.2210     1.3810     0.1730 hc         1 INK       0.095367
     20 HC2          1.1840    -1.3210     1.0870 h1         1 INK       0.074700
     21 HC31         2.9980     1.1190     1.3600 hc         1 INK       0.053700
     22 HC32         3.5130    -0.5430     1.1690 hc         1 INK       0.053700
     23 HC41         3.6570    -0.0160     3.5370 hc         1 INK       0.044367
     24 HC42         2.0170     0.6160     3.5800 hc         1 INK       0.044367
     25 HC43         2.2890    -1.1100     3.3520 hc         1 INK       0.044367
     26 HC51         1.7440     0.9870    -0.8290 h1         1 INK       0.051200
     27 HC52         2.3670    -0.6630    -1.0070 h1         1 INK       0.051200
     28 HC7         -1.0660     0.6280    -6.0900 ha         1 INK       0.117000
     29 HC8         -2.6840    -0.3550    -4.4810 ha         1 INK       0.114500
     30 HC9         -1.9900    -0.8470    -2.1670 ha         1 INK       0.124000
     31 H11          1.9540     0.6050    -3.0620 ha         1 INK       0.124000
     32 HC6          1.2490     1.0950    -5.3460 ha         1 INK       0.114500
@<TRIPOS>BOND
     1     1     2 1   
     2     1     3 1   
     3     1     4 2   
     4     1     5 1   
     5     3    17 1   
     6     3    18 1   
     7     3    19 1   
     8     5     6 1   
     9     6     7 1   
    10     6     9 1   
    11     6    20 1   
    12     7     8 1   
    13     7    21 1   
    14     7    22 1   
    15     8    23 1   
    16     8    24 1   
    17     8    25 1   
    18     9    10 1   
    19     9    26 1   
    20     9    27 1   
    21    10    15 1   
    22    11    12 ar  
    23    11    16 ar  
    24    11    32 1   
    25    12    13 ar  
    26    12    28 1   
    27    13    14 ar  
    28    13    29 1   
    29    14    15 ar  
    30    14    30 1   
    31    15    16 ar  
    32    16    31 1   
@<TRIPOS>SUBSTRUCTURE
     1 INK         1 TEMP              0 ****  ****    0 ROOT
