@<TRIPOS>MOLECULE
INL
   51    54     1     0     0
SMALL
abcg2


@<TRIPOS>ATOM
      1 S1          -0.0380     0.3250    -5.7040 sy         1 INL       1.173600
      2 O2           1.2810     0.7790    -6.1110 o          1 INL      -0.539500
      3 O3          -0.6480    -0.8220    -6.3500 o          1 INL      -0.539500
      4 N4          -1.1630     1.5220    -5.7290 n8         1 INL      -1.015100
      5 C5           0.1080     0.0010    -3.9840 cc         1 INL      -0.408500
      6 C6          -0.7640    -0.6910    -3.2050 cd         1 INL       0.010000
      7 C7          -0.3210    -0.7550    -1.8550 cd         1 INL       0.055200
      8 C8           0.8790    -0.0990    -1.7120 cc         1 INL      -0.469500
      9 S9           1.4890     0.5890    -3.1520 ss         1 INL       0.472000
     10 C10         -1.0030    -1.3320    -0.7330 cf         1 INL      -0.269200
     11 C11         -0.6530    -1.0480     0.5360 c2         1 INL       0.191800
     12 N12          0.4350    -0.2180     0.8160 nh         1 INL      -0.641100
     13 S13          1.7560    -0.1920    -0.2250 sy         1 INL       1.229600
     14 O14          2.5040     1.0250     0.0060 o          1 INL      -0.522500
     15 O15          2.4500    -1.4610    -0.1490 o          1 INL      -0.522500
     16 C16         -1.4390    -1.5740     1.7030 c3         1 INL       0.207000
     17 C17         -2.3950    -0.8430     3.7960 c6         1 INL       0.135800
     18 C18         -2.9850     0.3680     4.4920 c6         1 INL       0.153600
     19 O19         -4.1410     0.8330     3.8330 os         1 INL      -0.448000
     20 C20         -3.8570     1.1650     2.4940 c6         1 INL       0.153600
     21 C21         -3.2840    -0.0170     1.7340 c6         1 INL       0.135800
     22 N22         -2.1070    -0.5140     2.4160 n3         1 INL      -0.731600
     23 C23          1.3810    -0.4440     3.0420 ca         1 INL      -0.157000
     24 C24          0.6980     0.3210     2.1170 ca         1 INL       0.290000
     25 C25          0.2910     1.6160     2.4060 ca         1 INL      -0.090000
     26 C26          0.5620     2.1270     3.6600 ca         1 INL      -0.072000
     27 C27          1.2320     1.3720     4.6180 ca         1 INL      -0.187000
     28 C28          1.6470     0.0800     4.3100 ca         1 INL       0.145100
     29 O29          2.3090    -0.7320     5.1520 os         1 INL      -0.338100
     30 C30          2.6310    -0.2480     6.4390 c3         1 INL       0.147900
     31 HN41        -1.6700     1.5480    -6.6080 hn         1 INL       0.480500
     32 HN42        -0.7830     2.4360    -5.5080 hn         1 INL       0.480500
     33 H61         -1.6870    -1.1250    -3.5610 ha         1 INL       0.152000
     34 H101        -1.8560    -1.9720    -0.9060 ha         1 INL       0.207000
     35 H161        -2.1290    -2.3430     1.3250 h1         1 INL       0.054200
     36 H162        -0.7580    -2.0830     2.3910 h1         1 INL       0.054200
     37 H172        -1.4640    -1.1170     4.2990 h1         1 INL       0.043200
     38 H181        -3.2730     0.1110     5.5130 h1         1 INL       0.051700
     39 H182        -2.2220     1.1570     4.5400 h1         1 INL       0.051700
     40 H201        -4.7920     1.4870     2.0330 h1         1 INL       0.051700
     41 H202        -3.1480     2.0030     2.4470 h1         1 INL       0.051700
     42 H211        -3.0170     0.3100     0.7270 h1         1 INL       0.043200
     43 H212        -4.0560    -0.8000     1.6290 h1         1 INL       0.043200
     44 H231         1.7130    -1.4460     2.7980 ha         1 INL       0.142000
     45 H251        -0.2430     2.1940     1.6660 ha         1 INL       0.130000
     46 H261         0.2460     3.1310     3.9100 ha         1 INL       0.117000
     47 H271         1.4240     1.8080     5.5880 ha         1 INL       0.120000
     48 H301         3.1640    -1.0480     6.9460 h1         1 INL       0.042700
     49 H302         3.2780     0.6330     6.3930 h1         1 INL       0.042700
     50 H303         1.7380     0.0010     7.0180 h1         1 INL       0.042700
     51 H171        -3.0870    -1.6980     3.8850 h1         1 INL       0.043200
@<TRIPOS>BOND
     1     1     2 2   
     2     1     3 2   
     3     1     4 1   
     4     1     5 1   
     5     4    31 1   
     6     4    32 1   
     7     5     6 2   
     8     5     9 1   
     9     6     7 1   
    10     6    33 1   
    11     7     8 2   
    12     7    10 1   
    13     8     9 1   
    14     8    13 1   
    15    10    11 2   
    16    10    34 1   
    17    11    12 1   
    18    11    16 1   
    19    12    13 1   
    20    12    24 1   
    21    13    14 2   
    22    13    15 2   
    23    16    22 1   
    24    16    35 1   
    25    16    36 1   
    26    17    18 1   
    27    17    22 1   
    28    17    37 1   
    29    17    51 1   
    30    18    19 1   
    31    18    38 1   
    32    18    39 1   
    33    19    20 1   
    34    20    21 1   
    35    20    40 1   
    36    20    41 1   
    37    21    22 1   
    38    21    42 1   
    39    21    43 1   
    40    23    24 ar  
    41    23    28 ar  
    42    23    44 1   
    43    24    25 ar  
    44    25    26 ar  
    45    25    45 1   
    46    26    27 ar  
    47    26    46 1   
    48    27    28 ar  
    49    27    47 1   
    50    28    29 1   
    51    29    30 1   
    52    30    48 1   
    53    30    49 1   
    54    30    50 1   
@<TRIPOS>SUBSTRUCTURE
     1 INL         1 TEMP              0 ****  ****    0 ROOT
