@<TRIPOS>MOLECULE
INL
   51    54     1     0     0
SMALL
No Charge or Current Charge


@<TRIPOS>ATOM
      1 S1          -0.0840     0.1780    -5.7770 sy         1 INL       1.173600
      2 O2           1.2230     0.3380    -6.4070 o          1 INL      -0.539500
      3 O3          -1.1190    -0.7060    -6.3040 o          1 INL      -0.539500
      4 N4          -0.7550     1.6570    -5.8510 n8         1 INL      -1.015100
      5 C5           0.0930    -0.0510    -4.0440 cc         1 INL      -0.408500
      6 C6          -0.8350    -0.5640    -3.1690 cd         1 INL       0.010000
      7 C7          -0.3630    -0.6210    -1.8280 cd         1 INL       0.055200
      8 C8           0.9110    -0.1590    -1.7260 cc         1 INL      -0.469500
      9 S9           1.5820     0.3840    -3.2400 ss         1 INL       0.472000
     10 C10         -1.0760    -1.1030    -0.6580 cf         1 INL      -0.269200
     11 C11         -0.6150    -0.9420     0.6080 c2         1 INL       0.191800
     12 N12          0.5950    -0.3050     0.9230 nh         1 INL      -0.641100
     13 S13          1.8240    -0.1020    -0.2330 sy         1 INL       1.229600
     14 O14          2.3880     1.2460    -0.1000 o          1 INL      -0.522500
     15 O15          2.6790    -1.2940    -0.1900 o          1 INL      -0.522500
     16 C16         -1.4310    -1.4860     1.7960 c3         1 INL       0.207000
     17 C17         -2.8640    -0.9780     3.7670 c6         1 INL       0.135800
     18 C18         -3.6720     0.1310     4.5040 c6         1 INL       0.153600
     19 O19         -4.6680     0.7000     3.6200 os         1 INL      -0.448000
     20 C20         -4.0880     1.2710     2.4230 c6         1 INL       0.153600
     21 C21         -3.2850     0.1910     1.6380 c6         1 INL       0.135800
     22 N22         -2.2550    -0.4640     2.5030 n3         1 INL      -0.731600
     23 C23          1.7550    -0.4290     3.0610 ca         1 INL      -0.157000
     24 C24          0.8710     0.2290     2.1910 ca         1 INL       0.290000
     25 C25          0.2590     1.4260     2.6030 ca         1 INL      -0.090000
     26 C26          0.5250     1.9600     3.8750 ca         1 INL      -0.072000
     27 C27          1.4100     1.2970     4.7420 ca         1 INL      -0.187000
     28 C28          2.0280     0.0950     4.3340 ca         1 INL       0.145100
     29 O29          2.9030    -0.6020     5.1420 os         1 INL      -0.338100
     30 C30          3.2480    -0.1540     6.4650 c3         1 INL       0.147900
     31 HN41        -1.6340     1.4270    -6.3070 hn         1 INL       0.480500
     32 HN42        -0.2210     2.0610    -6.6170 hn         1 INL       0.480500
     33 H61         -1.8270    -0.8940    -3.4650 ha         1 INL       0.152000
     34 H101        -2.0330    -1.5930    -0.8340 ha         1 INL       0.207000
     35 H161        -2.0790    -2.2970     1.4380 h1         1 INL       0.054200
     36 H162        -0.7330    -1.9510     2.5050 h1         1 INL       0.054200
     37 H172        -2.0820    -1.3520     4.4430 h1         1 INL       0.043200
     38 H181        -4.1730    -0.2940     5.3860 h1         1 INL       0.051700
     39 H182        -2.9920     0.9250     4.8450 h1         1 INL       0.051700
     40 H201        -4.8900     1.6750     1.7900 h1         1 INL       0.051700
     41 H202        -3.4220     2.1010     2.7020 h1         1 INL       0.051700
     42 H211        -2.8120     0.6730     0.7710 h1         1 INL       0.043200
     43 H212        -3.9890    -0.5590     1.2480 h1         1 INL       0.043200
     44 H231         2.2250    -1.3570     2.7520 ha         1 INL       0.142000
     45 H251        -0.4300     1.9330     1.9350 ha         1 INL       0.130000
     46 H261         0.0440     2.8840     4.1870 ha         1 INL       0.117000
     47 H271         1.6000     1.7280     5.7210 ha         1 INL       0.120000
     48 H301         3.9550    -0.8530     6.9300 h1         1 INL       0.042700
     49 H302         3.7220     0.8350     6.4310 h1         1 INL       0.042700
     50 H303         2.3570    -0.0970     7.1030 h1         1 INL       0.042700
     51 H171        -3.5370    -1.8220     3.5520 h1         1 INL       0.043200
@<TRIPOS>BOND
     1     1     2 2   
     2     1     3 2   
     3     1     4 1   
     4     1     5 1   
     5     4    31 1   
     6     4    32 1   
     7     5     6 2   
     8     5     9 1   
     9     6     7 1   
    10     6    33 1   
    11     7     8 2   
    12     7    10 1   
    13     8     9 1   
    14     8    13 1   
    15    10    11 2   
    16    10    34 1   
    17    11    12 1   
    18    11    16 1   
    19    12    13 1   
    20    12    24 1   
    21    13    14 2   
    22    13    15 2   
    23    16    22 1   
    24    16    35 1   
    25    16    36 1   
    26    17    18 1   
    27    17    22 1   
    28    17    37 1   
    29    17    51 1   
    30    18    19 1   
    31    18    38 1   
    32    18    39 1   
    33    19    20 1   
    34    20    21 1   
    35    20    40 1   
    36    20    41 1   
    37    21    22 1   
    38    21    42 1   
    39    21    43 1   
    40    23    24 ar  
    41    23    28 ar  
    42    23    44 1   
    43    24    25 ar  
    44    25    26 ar  
    45    25    45 1   
    46    26    27 ar  
    47    26    46 1   
    48    27    28 ar  
    49    27    47 1   
    50    28    29 1   
    51    29    30 1   
    52    30    48 1   
    53    30    49 1   
    54    30    50 1   
@<TRIPOS>SUBSTRUCTURE
     1 INL         1 TEMP              0 ****  ****    0 ROOT
