@<TRIPOS>MOLECULE
INN
   66    65     1     0     0
SMALL
bcc


@<TRIPOS>ATOM
      1 C0          -4.4700    -0.6360     0.7580 c3         1 INN      -0.148400
      2 C           -5.7270    -0.4940    -0.0700 c          1 INN       0.667100
      3 O           -5.7620    -0.6830    -1.2730 o          1 INN      -0.573100
      4 N           -6.8120    -0.1610     0.6590 ns         1 INN      -0.453400
      5 O4          -8.0520    -0.2560     0.1010 oh         1 INN      -0.389100
      6 C4          -1.9790    -0.6510     0.6350 c          1 INN       0.668100
      7 O1          -1.8550    -1.0000     1.8000 o          1 INN      -0.612100
      8 CA          -3.2410     0.0260     0.1290 c3         1 INN      -0.127700
      9 CB          -3.1120     1.5190     0.4790 c3         1 INN      -0.073400
     10 C1          -4.1990     2.4510    -0.0590 c3         1 INN      -0.059700
     11 C2          -4.2170     2.4970    -1.5830 c3         1 INN      -0.092600
     12 C3          -3.9840     3.8520     0.5100 c3         1 INN      -0.092600
     13 N1          -1.0100    -0.7910    -0.2880 ns         1 INN      -0.558900
     14 C5           0.3260    -1.2510     0.0050 c3         1 INN       0.039700
     15 C6           0.6140    -2.6690    -0.5670 c3         1 INN      -0.047000
     16 C7          -0.3670    -3.6470     0.0830 c3         1 INN      -0.087767
     17 C8           0.4440    -2.7230    -2.0850 c3         1 INN      -0.087767
     18 C9           2.0380    -3.0910    -0.1980 c3         1 INN      -0.087767
     19 C10          1.3020    -0.1960    -0.5080 c          1 INN       0.658100
     20 O2           1.1360     0.3580    -1.5860 o          1 INN      -0.618100
     21 N2           2.3390     0.0620     0.2990 ns         1 INN      -0.560900
     22 C11          3.4000     0.9820    -0.0400 c3         1 INN       0.033700
     23 C13          4.6800     0.4890     0.6270 c          1 INN       0.655100
     24 O3           4.6590    -0.0120     1.7430 o          1 INN      -0.606100
     25 C12          3.0910     2.4080     0.4130 c3         1 INN      -0.106100
     26 N4           9.4990     0.7350     0.1040 n8         1 INN      -0.884800
     27 C15          8.1780     1.1540    -0.3310 c3         1 INN       0.133800
     28 C14          7.1190     0.3270     0.3820 c3         1 INN       0.097000
     29 N3           5.7960     0.6940    -0.0780 ns         1 INN      -0.566900
     30 H01         -4.6200    -0.2730     1.7770 hc         1 INN       0.073700
     31 H02         -4.3080    -1.7150     0.8420 hc         1 INN       0.073700
     32 HN          -6.8020    -0.1900     1.6690 hn         1 INN       0.332500
     33 HO4         -8.3200     0.6460    -0.1120 ho         1 INN       0.407000
     34 HA          -3.2930    -0.0910    -0.9570 hc         1 INN       0.083700
     35 HB1         -3.0710     1.6090     1.5690 hc         1 INN       0.050200
     36 HB2         -2.1460     1.8820     0.1050 hc         1 INN       0.050200
     37 H1          -5.1750     2.1020     0.2930 hc         1 INN       0.044700
     38 H21         -3.2430     2.8010    -1.9720 hc         1 INN       0.036200
     39 H22         -4.4680     1.5320    -2.0250 hc         1 INN       0.036200
     40 H23         -4.9550     3.2180    -1.9390 hc         1 INN       0.036200
     41 H31         -4.7540     4.5410     0.1610 hc         1 INN       0.036200
     42 H32         -4.0100     3.8510     1.6010 hc         1 INN       0.036200
     43 H33         -3.0160     4.2550     0.2010 hc         1 INN       0.036200
     44 HN1         -1.1800    -0.4390    -1.2170 hn         1 INN       0.334500
     45 H5           0.4100    -1.3200     1.0920 h1         1 INN       0.088700
     46 H71         -1.4010    -3.4250    -0.1850 hc         1 INN       0.040033
     47 H72         -0.1540    -4.6650    -0.2490 hc         1 INN       0.040033
     48 H73         -0.2890    -3.6270     1.1710 hc         1 INN       0.040033
     49 H81          1.1490    -2.0770    -2.6070 hc         1 INN       0.040033
     50 H82          0.6130    -3.7430    -2.4350 hc         1 INN       0.040033
     51 H83         -0.5660    -2.4440    -2.3930 hc         1 INN       0.040033
     52 H91          2.2100    -3.0260     0.8790 hc         1 INN       0.040033
     53 H92          2.2010    -4.1290    -0.4920 hc         1 INN       0.040033
     54 H93          2.7980    -2.4910    -0.6990 hc         1 INN       0.040033
     55 HN2          2.3860    -0.3740     1.2080 hn         1 INN       0.341500
     56 H11          3.5210     0.9720    -1.1250 h1         1 INN       0.077700
     57 H121         2.9430     2.4490     1.4930 hc         1 INN       0.050700
     58 H122         3.9040     3.0850     0.1500 hc         1 INN       0.050700
     59 H123         2.1840     2.7640    -0.0740 hc         1 INN       0.050700
     60 HN41        10.2000     1.1790    -0.4750 hn         1 INN       0.344300
     61 HN42         9.6690     1.0680     1.0450 hn         1 INN       0.344300
     62 H151         8.1030     0.9790    -1.4080 h1         1 INN       0.031200
     63 H152         7.9680     2.2200    -0.1710 h1         1 INN       0.031200
     64 H141         7.1760     0.4960     1.4590 h1         1 INN       0.063700
     65 H142         7.3080    -0.7360     0.2070 h1         1 INN       0.063700
     66 HN3          5.7070     1.0120    -1.0310 hn         1 INN       0.314500
@<TRIPOS>BOND
     1     1     2 1   
     2     1     8 1   
     3     1    30 1   
     4     1    31 1   
     5     2     3 2   
     6     2     4 1   
     7     4     5 1   
     8     4    32 1   
     9     5    33 1   
    10     6     7 2   
    11     6     8 1   
    12     6    13 1   
    13     8     9 1   
    14     8    34 1   
    15     9    10 1   
    16     9    35 1   
    17     9    36 1   
    18    10    11 1   
    19    10    12 1   
    20    10    37 1   
    21    11    38 1   
    22    11    39 1   
    23    11    40 1   
    24    12    41 1   
    25    12    42 1   
    26    12    43 1   
    27    13    14 1   
    28    13    44 1   
    29    14    15 1   
    30    14    19 1   
    31    14    45 1   
    32    15    16 1   
    33    15    17 1   
    34    15    18 1   
    35    16    46 1   
    36    16    47 1   
    37    16    48 1   
    38    17    49 1   
    39    17    50 1   
    40    17    51 1   
    41    18    52 1   
    42    18    53 1   
    43    18    54 1   
    44    19    20 2   
    45    19    21 1   
    46    21    22 1   
    47    21    55 1   
    48    22    23 1   
    49    22    25 1   
    50    22    56 1   
    51    23    24 2   
    52    23    29 1   
    53    25    57 1   
    54    25    58 1   
    55    25    59 1   
    56    26    27 1   
    57    26    60 1   
    58    26    61 1   
    59    27    28 1   
    60    27    62 1   
    61    27    63 1   
    62    28    29 1   
    63    28    64 1   
    64    28    65 1   
    65    29    66 1   
@<TRIPOS>SUBSTRUCTURE
     1 INN         1 TEMP              0 ****  ****    0 ROOT
