@<TRIPOS>MOLECULE
INN
   66    65     1     0     0
SMALL
No Charge or Current Charge


@<TRIPOS>ATOM
      1 C0          -4.4750    -0.7570     0.4150 c3         1 INN      -0.148400
      2 C           -5.5610    -0.7040    -0.6690 c          1 INN       0.600100
      3 O           -5.3240    -0.9610    -1.8420 o          1 INN      -0.573100
      4 N           -6.8380    -0.3860    -0.2180 ns         1 INN      -0.386400
      5 O4          -7.9980    -0.5760    -1.0650 oh         1 INN      -0.428100
      6 C4          -1.9990    -0.2920     0.7960 c          1 INN       0.601100
      7 O1          -1.8570    -0.5460     1.9840 o          1 INN      -0.612100
      8 CA          -3.3140     0.2740     0.2170 c3         1 INN      -0.127700
      9 CB          -3.5880     1.6860     0.8220 c3         1 INN      -0.073400
     10 C1          -4.7400     2.5210     0.1950 c3         1 INN      -0.059700
     11 C2          -4.5360     2.8030    -1.3130 c3         1 INN      -0.092600
     12 C3          -4.9380     3.8430     0.9710 c3         1 INN      -0.092600
     13 N1          -0.9920    -0.4940    -0.1220 ns         1 INN      -0.491900
     14 C5           0.3510    -1.0500     0.1810 c3         1 INN       0.039700
     15 C6           0.4370    -2.5840    -0.1760 c3         1 INN      -0.047000
     16 C7          -0.6320    -3.3820     0.6230 c3         1 INN      -0.087767
     17 C8           0.1970    -2.8210    -1.6940 c3         1 INN      -0.087767
     18 C9           1.8310    -3.1610     0.2000 c3         1 INN      -0.087767
     19 C10          1.4240    -0.1700    -0.5350 c          1 INN       0.591100
     20 O2           1.1980     0.4450    -1.5710 o          1 INN      -0.618100
     21 N2           2.6500    -0.0980     0.0940 ns         1 INN      -0.493900
     22 C11          3.8130     0.6780    -0.3880 c3         1 INN       0.033700
     23 C13          5.1280     0.1190     0.2300 c          1 INN       0.588100
     24 O3           5.1430    -0.7180     1.1250 o          1 INN      -0.606100
     25 C12          3.6280     2.1850    -0.0860 c3         1 INN      -0.106100
     26 N4          10.0960     0.7950     0.0090 n8         1 INN      -0.995200
     27 C15          8.7340     1.1810    -0.4230 c3         1 INN       0.133800
     28 C14          7.6400     0.2350     0.1310 c3         1 INN       0.097000
     29 N3           6.2940     0.6240    -0.3060 ns         1 INN      -0.499900
     30 H01         -4.9160    -0.6300     1.4110 hc         1 INN       0.073700
     31 H02         -4.0460    -1.7650     0.3620 hc         1 INN       0.073700
     32 HN          -7.0160    -0.3410     0.7840 hn         1 INN       0.332500
     33 HO4         -8.4780     0.2830    -0.9990 ho         1 INN       0.446000
     34 HA          -3.1470     0.3910    -0.8600 hc         1 INN       0.083700
     35 HB1         -3.7830     1.5690     1.8970 hc         1 INN       0.050200
     36 HB2         -2.6650     2.2750     0.7480 hc         1 INN       0.050200
     37 H1          -5.6730     1.9580     0.3060 hc         1 INN       0.044700
     38 H21         -3.5810     3.3130    -1.4890 hc         1 INN       0.036200
     39 H22         -4.5480     1.8780    -1.8990 hc         1 INN       0.036200
     40 H23         -5.3400     3.4430    -1.6980 hc         1 INN       0.036200
     41 H31         -5.7880     4.4070     0.5670 hc         1 INN       0.036200
     42 H32         -5.1400     3.6460     2.0310 hc         1 INN       0.036200
     43 H33         -4.0440     4.4750     0.9030 hc         1 INN       0.036200
     44 HN1         -1.1830    -0.2170    -1.0780 hn         1 INN       0.334500
     45 H5           0.5350    -0.9370     1.2580 h1         1 INN       0.088700
     46 H71         -1.6500    -3.0950     0.3320 hc         1 INN       0.040033
     47 H72         -0.5350    -4.4600     0.4430 hc         1 INN       0.040033
     48 H73         -0.5250    -3.2100     1.7010 hc         1 INN       0.040033
     49 H81          0.9510    -2.3070    -2.3030 hc         1 INN       0.040033
     50 H82          0.2530    -3.8900    -1.9340 hc         1 INN       0.040033
     51 H83         -0.7920    -2.4640    -2.0040 hc         1 INN       0.040033
     52 H91          2.0710    -2.9580     1.2510 hc         1 INN       0.040033
     53 H92          1.8570    -4.2480     0.0560 hc         1 INN       0.040033
     54 H93          2.6260    -2.7370    -0.4240 hc         1 INN       0.040033
     55 HN2          2.7670    -0.6460     0.9400 hn         1 INN       0.341500
     56 H11          3.8930     0.5450    -1.4750 h1         1 INN       0.077700
     57 H121         3.5630     2.3580     0.9950 hc         1 INN       0.050700
     58 H122         4.4680     2.7700    -0.4770 hc         1 INN       0.050700
     59 H123         2.7100     2.5660    -0.5490 hc         1 INN       0.050700
     60 HN41        10.7720     1.4780    -0.3590 hn         1 INN       0.399500
     61 HN42        10.1740     0.9120     1.0280 hn         1 INN       0.399500
     62 H151         8.7010     1.1680    -1.5210 h1         1 INN       0.031200
     63 H152         8.5360     2.2080    -0.0850 h1         1 INN       0.031200
     64 H141         7.6740     0.2460     1.2290 h1         1 INN       0.063700
     65 H142         7.8370    -0.7900    -0.2080 h1         1 INN       0.063700
     66 HN3          6.2010     1.3060    -1.0500 hn         1 INN       0.314500
@<TRIPOS>BOND
     1     1     2 1   
     2     1     8 1   
     3     1    30 1   
     4     1    31 1   
     5     2     3 2   
     6     2     4 1   
     7     4     5 1   
     8     4    32 1   
     9     5    33 1   
    10     6     7 2   
    11     6     8 1   
    12     6    13 1   
    13     8     9 1   
    14     8    34 1   
    15     9    10 1   
    16     9    35 1   
    17     9    36 1   
    18    10    11 1   
    19    10    12 1   
    20    10    37 1   
    21    11    38 1   
    22    11    39 1   
    23    11    40 1   
    24    12    41 1   
    25    12    42 1   
    26    12    43 1   
    27    13    14 1   
    28    13    44 1   
    29    14    15 1   
    30    14    19 1   
    31    14    45 1   
    32    15    16 1   
    33    15    17 1   
    34    15    18 1   
    35    16    46 1   
    36    16    47 1   
    37    16    48 1   
    38    17    49 1   
    39    17    50 1   
    40    17    51 1   
    41    18    52 1   
    42    18    53 1   
    43    18    54 1   
    44    19    20 2   
    45    19    21 1   
    46    21    22 1   
    47    21    55 1   
    48    22    23 1   
    49    22    25 1   
    50    22    56 1   
    51    23    24 2   
    52    23    29 1   
    53    25    57 1   
    54    25    58 1   
    55    25    59 1   
    56    26    27 1   
    57    26    60 1   
    58    26    61 1   
    59    27    28 1   
    60    27    62 1   
    61    27    63 1   
    62    28    29 1   
    63    28    64 1   
    64    28    65 1   
    65    29    66 1   
@<TRIPOS>SUBSTRUCTURE
     1 INN         1 TEMP              0 ****  ****    0 ROOT
