@<TRIPOS>MOLECULE
INO
   15    15     1     0     0
SMALL
abcg2


@<TRIPOS>ATOM
      1 N1          -1.7970     0.4090    -0.1390 na         1 INO       0.319300
      2 C2          -1.2610    -0.8400    -0.1200 ca         1 INO       0.044100
      3 C3           0.1060    -1.0220    -0.0540 ca         1 INO      -0.120000
      4 C4           0.9480     0.0790    -0.0030 ca         1 INO      -0.095600
      5 C5           0.3710     1.3470    -0.0230 ca         1 INO      -0.127000
      6 C6          -0.9940     1.4880    -0.0920 ca         1 INO      -0.114300
      7 C7           2.4620    -0.1010     0.0770 c          1 INO       0.717600
      8 O1           2.8770    -1.2730     0.0680 o          1 INO      -0.704000
      9 O2           3.1320     0.9440     0.1450 o          1 INO      -0.704000
     10 O3          -2.1460    -1.8160    -0.1670 oh         1 INO      -0.543100
     11 O4          -3.0870     0.4900    -0.2010 o          1 INO      -0.635000
     12 H3           0.5000    -2.0290    -0.0420 ha         1 INO       0.161000
     13 H5           0.9840     2.2350     0.0160 ha         1 INO       0.149000
     14 H6          -1.4970     2.4430    -0.1130 h4         1 INO       0.142000
     15 HO3         -3.0140    -1.3510    -0.2020 ho         1 INO       0.510000
@<TRIPOS>BOND
     1     1     2 1   
     2     1     6 2   
     3     1    11 1   
     4     2     3 ar  
     5     2    10 1   
     6     3     4 ar  
     7     3    12 1   
     8     4     5 ar  
     9     4     7 1   
    10     5     6 ar  
    11     5    13 1   
    12     6    14 1   
    13     7     8 1   
    14     7     9 1   
    15    10    15 1   
@<TRIPOS>SUBSTRUCTURE
     1 INO         1 TEMP              0 ****  ****    0 ROOT
