@<TRIPOS>MOLECULE
INO
   15    15     1     0     0
SMALL
No Charge or Current Charge


@<TRIPOS>ATOM
      1 N1          -1.8580     0.4190    -0.1400 na         1 INO       0.319300
      2 C2          -1.2780    -0.8580    -0.1200 ca         1 INO       0.044100
      3 C3           0.1090    -1.0490    -0.0510 ca         1 INO      -0.120000
      4 C4           0.9680     0.0780     0.0010 ca         1 INO      -0.095600
      5 C5           0.3810     1.3720    -0.0190 ca         1 INO      -0.127000
      6 C6          -1.0200     1.5280    -0.0890 ca         1 INO      -0.114300
      7 C7           2.4790    -0.0960     0.0760 c          1 INO       0.717600
      8 O1           2.9370    -1.2300     0.0910 o          1 INO      -0.704000
      9 O2           3.1820     0.9050     0.1200 o          1 INO      -0.704000
     10 O3          -2.1830    -1.8860    -0.1740 oh         1 INO      -0.543100
     11 O4          -3.0960     0.5590    -0.2020 o          1 INO      -0.635000
     12 H3           0.5130    -2.0590    -0.0390 ha         1 INO       0.161000
     13 H5           1.0100     2.2590     0.0190 ha         1 INO       0.149000
     14 H6          -1.4890     2.5100    -0.1060 h4         1 INO       0.142000
     15 HO3         -3.0690    -1.4480    -0.2160 ho         1 INO       0.510000
@<TRIPOS>BOND
     1     1     2 1   
     2     1     6 2   
     3     1    11 1   
     4     2     3 ar  
     5     2    10 1   
     6     3     4 ar  
     7     3    12 1   
     8     4     5 ar  
     9     4     7 1   
    10     5     6 ar  
    11     5    13 1   
    12     6    14 1   
    13     7     8 1   
    14     7     9 1   
    15    10    15 1   
@<TRIPOS>SUBSTRUCTURE
     1 INO         1 TEMP              0 ****  ****    0 ROOT
