@<TRIPOS>MOLECULE
INP
   85    87     1     0     0
SMALL
No Charge or Current Charge


@<TRIPOS>ATOM
      1 C1          -2.6370    -3.3710     9.3670 ca         1 INP      -0.115500
      2 C2          -2.2850    -2.1110     8.8520 ca         1 INP      -0.085000
      3 C3          -2.6500    -1.7530     7.5390 ca         1 INP      -0.102300
      4 C4          -3.3680    -2.6710     6.7450 ca         1 INP      -0.085000
      5 C5          -3.7190    -3.9300     7.2610 ca         1 INP      -0.115500
      6 C6          -3.3550    -4.2810     8.5720 ca         1 INP      -0.098000
      7 C7          -2.2700    -0.3880     6.9800 c3         1 INP       0.231900
      8 O8          -0.9990    -0.5060     6.3230 os         1 INP      -0.464100
      9 C9          -0.4840     0.6130     5.7480 c          1 INP       0.639100
     10 O10         -1.0130     1.7120     5.7260 o          1 INP      -0.544000
     11 N11          0.7070     0.2930     5.1640 ns         1 INP      -0.505900
     12 C12          1.5680     1.2290     4.4240 c3         1 INP       0.123700
     13 C13          1.8330     0.7510     2.9650 c3         1 INP       0.166800
     14 N14          0.6840     0.8460     2.0250 n3         1 INP      -0.721600
     15 C15          0.9950     0.5240     0.6060 c5         1 INP       0.156800
     16 C16         -0.5170    -0.0040     2.3110 c5         1 INP       0.052800
     17 C17         -1.3240    -0.1340     1.0060 c          1 INP       0.546100
     18 C18         -0.4240     0.5470    -0.0470 c5         1 INP      -0.009300
     19 C19          2.8970     1.4550     5.1950 c3         1 INP      -0.091400
     20 C20          2.7640     2.0290     6.6360 c3         1 INP      -0.056700
     21 C21          4.1310     2.0290     7.3560 c3         1 INP      -0.092100
     22 C22          2.1370     3.4440     6.6580 c3         1 INP      -0.092100
     23 N23         -0.3480    -0.3230    -1.2530 ns         1 INP      -0.485900
     24 C24          0.2160     0.1940    -2.4090 c          1 INP       0.589100
     25 O25          0.6250     1.3470    -2.4800 o          1 INP      -0.582100
     26 C26          0.2770    -0.8020    -3.6040 c3         1 INP       0.049700
     27 C27          1.3520    -1.9010    -3.3580 c3         1 INP      -0.084400
     28 C28          1.3720    -3.0790    -4.3730 c3         1 INP      -0.059700
     29 C29          2.6160    -3.9700    -4.1570 c3         1 INP      -0.091100
     30 C30          0.0800    -3.9300    -4.3220 c3         1 INP      -0.091100
     31 N31          0.5470    -0.0670    -4.8600 ns         1 INP      -0.474900
     32 C32         -0.0460    -0.3100    -6.0660 c          1 INP       0.638100
     33 O33         -0.9000    -1.1570    -6.2770 o          1 INP      -0.529000
     34 O34          0.4510     0.5630    -6.9820 os         1 INP      -0.454100
     35 C35         -0.0550     0.4760    -8.3240 c3         1 INP       0.225900
     36 C36          0.6420     1.5350    -9.1680 ca         1 INP      -0.056300
     37 C37          1.8500     1.2570    -9.8350 ca         1 INP      -0.144500
     38 C38          2.4630     2.2640   -10.6010 ca         1 INP       0.331400
     39 N39          1.9460     3.5080   -10.7330 nb         1 INP      -0.661000
     40 C40          0.7850     3.7770   -10.0900 ca         1 INP       0.331400
     41 C41          0.1070     2.8290    -9.3040 ca         1 INP      -0.144500
     42 O42         -2.4030    -0.6940     0.8350 o          1 INP      -0.473100
     43 H1          -2.3530    -3.6420    10.3810 ha         1 INP       0.114500
     44 H2          -1.7270    -1.4130     9.4730 ha         1 INP       0.115500
     45 H4          -3.6510    -2.4080     5.7280 ha         1 INP       0.115500
     46 H5          -4.2730    -4.6350     6.6440 ha         1 INP       0.114500
     47 H6          -3.6270    -5.2560     8.9710 ha         1 INP       0.113000
     48 H71         -2.2200     0.3440     7.7980 h1         1 INP       0.058200
     49 H72         -3.0430    -0.0520     6.2760 h1         1 INP       0.058200
     50 HN1          1.0020    -0.6690     5.2650 hn         1 INP       0.320500
     51 H12          1.0560     2.1970     4.3420 h1         1 INP       0.102700
     52 H131         2.6490     1.3660     2.5620 h1         1 INP       0.036200
     53 H132         2.2080    -0.2810     2.9970 h1         1 INP       0.036200
     54 H151         1.6740     1.2580     0.1510 h1         1 INP       0.043200
     55 H152         1.4600    -0.4690     0.5220 h1         1 INP       0.043200
     56 H161        -0.2370    -1.0180     2.6260 h1         1 INP       0.077700
     57 H162        -1.1650     0.4390     3.0780 h1         1 INP       0.077700
     58 H18         -0.7900     1.5660    -0.2250 h1         1 INP       0.121700
     59 H191         3.5350     2.1300     4.6100 hc         1 INP       0.043700
     60 H192         3.4300     0.4970     5.2450 hc         1 INP       0.043700
     61 H20          2.1040     1.3670     7.2110 hc         1 INP       0.048700
     62 H211         4.0270     2.3890     8.3870 hc         1 INP       0.036367
     63 H212         4.5500     1.0170     7.3950 hc         1 INP       0.036367
     64 H213         4.8470     2.6780     6.8370 hc         1 INP       0.036367
     65 H221         2.7380     4.1460     6.0670 hc         1 INP       0.036367
     66 H222         1.1190     3.4370     6.2530 hc         1 INP       0.036367
     67 H223         2.0800     3.8240     7.6850 hc         1 INP       0.036367
     68 HN2         -0.6860    -1.2800    -1.2840 hn         1 INP       0.313500
     69 H26         -0.7150    -1.2660    -3.6670 h1         1 INP       0.080700
     70 H271         2.3370    -1.4170    -3.3510 hc         1 INP       0.054700
     71 H272         1.2160    -2.3200    -2.3530 hc         1 INP       0.054700
     72 H28          1.4550    -2.6600    -5.3840 hc         1 INP       0.053700
     73 H291         2.6520    -4.7740    -4.9020 hc         1 INP       0.035700
     74 H292         3.5370    -3.3820    -4.2530 hc         1 INP       0.035700
     75 H293         2.6020    -4.4270    -3.1600 hc         1 INP       0.035700
     76 H301        -0.0650    -4.3600    -3.3230 hc         1 INP       0.035700
     77 H302        -0.8040    -3.3340    -4.5700 hc         1 INP       0.035700
     78 H303         0.1340    -4.7550    -5.0430 hc         1 INP       0.035700
     79 HN3          1.2030     0.7040    -4.8410 hn         1 INP       0.333500
     80 H351         0.1380    -0.5170    -8.7500 h1         1 INP       0.063700
     81 H352        -1.1400     0.6470    -8.3440 h1         1 INP       0.063700
     82 H37          2.3150     0.2770    -9.7630 ha         1 INP       0.127000
     83 H38          3.3980     2.0690   -11.1250 h4         1 INP       0.019100
     84 H40          0.3880     4.7850   -10.2090 h4         1 INP       0.019100
     85 H41         -0.8200     3.1050    -8.8090 ha         1 INP       0.127000
@<TRIPOS>BOND
     1     1     2 ar  
     2     1     6 ar  
     3     1    43 1   
     4     2     3 ar  
     5     2    44 1   
     6     3     4 ar  
     7     3     7 1   
     8     4     5 ar  
     9     4    45 1   
    10     5     6 ar  
    11     5    46 1   
    12     6    47 1   
    13     7     8 1   
    14     7    48 1   
    15     7    49 1   
    16     8     9 1   
    17     9    10 2   
    18     9    11 1   
    19    11    12 1   
    20    11    50 1   
    21    12    13 1   
    22    12    19 1   
    23    12    51 1   
    24    13    14 1   
    25    13    52 1   
    26    13    53 1   
    27    14    15 1   
    28    14    16 1   
    29    15    18 1   
    30    15    54 1   
    31    15    55 1   
    32    16    17 1   
    33    16    56 1   
    34    16    57 1   
    35    17    18 1   
    36    17    42 2   
    37    18    23 1   
    38    18    58 1   
    39    19    20 1   
    40    19    59 1   
    41    19    60 1   
    42    20    21 1   
    43    20    22 1   
    44    20    61 1   
    45    21    62 1   
    46    21    63 1   
    47    21    64 1   
    48    22    65 1   
    49    22    66 1   
    50    22    67 1   
    51    23    24 1   
    52    23    68 1   
    53    24    25 2   
    54    24    26 1   
    55    26    27 1   
    56    26    31 1   
    57    26    69 1   
    58    27    28 1   
    59    27    70 1   
    60    27    71 1   
    61    28    29 1   
    62    28    30 1   
    63    28    72 1   
    64    29    73 1   
    65    29    74 1   
    66    29    75 1   
    67    30    76 1   
    68    30    77 1   
    69    30    78 1   
    70    31    32 1   
    71    31    79 1   
    72    32    33 2   
    73    32    34 1   
    74    34    35 1   
    75    35    36 1   
    76    35    80 1   
    77    35    81 1   
    78    36    37 ar  
    79    36    41 ar  
    80    37    38 ar  
    81    37    82 1   
    82    38    39 ar  
    83    38    83 1   
    84    39    40 ar  
    85    40    41 ar  
    86    40    84 1   
    87    41    85 1   
@<TRIPOS>SUBSTRUCTURE
     1 INP         1 TEMP              0 ****  ****    0 ROOT
