@<TRIPOS>MOLECULE
INP
   85    87     1     0     0
SMALL
abcg2


@<TRIPOS>ATOM
      1 C1          -4.3990    -1.8120     8.4550 ca         1 INP      -0.115500
      2 C2          -3.6020    -0.8640     7.8320 ca         1 INP      -0.085000
      3 C3          -3.7920    -0.5530     6.4870 ca         1 INP      -0.102300
      4 C4          -4.7930    -1.2080     5.7780 ca         1 INP      -0.085000
      5 C5          -5.5970    -2.1550     6.4000 ca         1 INP      -0.115500
      6 C6          -5.3990    -2.4610     7.7390 ca         1 INP      -0.098000
      7 C7          -2.9130     0.4590     5.8170 c3         1 INP       0.231900
      8 O8          -1.6390    -0.1640     5.6170 os         1 INP      -0.464100
      9 C9          -0.6510     0.6080     5.1450 c          1 INP       0.639100
     10 O10         -0.7920     1.7820     4.8630 o          1 INP      -0.544000
     11 N11          0.4810    -0.1030     5.0160 ns         1 INP      -0.505900
     12 C12          1.7680     0.4490     4.6330 c3         1 INP       0.123700
     13 C13          2.3170    -0.2480     3.3850 c3         1 INP       0.166800
     14 N14          1.7820     0.2430     2.1360 n3         1 INP      -0.721600
     15 C15          2.4590    -0.3140     0.9770 c5         1 INP       0.156800
     16 C16          0.3600     0.0660     1.9150 c5         1 INP       0.052800
     17 C17          0.2110     0.1510     0.4160 c          1 INP       0.546100
     18 C18          1.6130     0.1990    -0.1800 c5         1 INP      -0.009300
     19 C19          2.7750     0.3140     5.7800 c3         1 INP      -0.091400
     20 C20          2.3490     0.9160     7.1190 c3         1 INP      -0.056700
     21 C21          3.3980     0.6000     8.1810 c3         1 INP      -0.092100
     22 C22          2.1250     2.4230     7.0250 c3         1 INP      -0.092100
     23 N23          1.7380    -0.5390    -1.3980 ns         1 INP      -0.485900
     24 C24          1.7510     0.0260    -2.6190 c          1 INP       0.589100
     25 O25          1.7090     1.2280    -2.8120 o          1 INP      -0.582100
     26 C26          1.8970    -0.9770    -3.7670 c3         1 INP       0.049700
     27 C27          3.3770    -1.3160    -3.9630 c3         1 INP      -0.084400
     28 C28          3.6590    -2.3740    -5.0340 c3         1 INP      -0.059700
     29 C29          5.1660    -2.5910    -5.1400 c3         1 INP      -0.091100
     30 C30          2.9440    -3.6890    -4.7470 c3         1 INP      -0.091100
     31 N31          1.3500    -0.4430    -4.9840 ns         1 INP      -0.474900
     32 C32          0.0320    -0.1800    -5.0780 c          1 INP       0.638100
     33 O33         -0.7970    -0.5130    -4.2590 o          1 INP      -0.529000
     34 O34         -0.2470     0.4800    -6.2070 os         1 INP      -0.454100
     35 C35         -1.6140     0.8060    -6.4430 c3         1 INP       0.225900
     36 C36         -1.7040     1.3890    -7.8210 ca         1 INP      -0.056300
     37 C37         -1.2110     0.7060    -8.9290 ca         1 INP      -0.144500
     38 C38         -1.3480     1.2790   -10.1820 ca         1 INP       0.331400
     39 N39         -1.9310     2.4550   -10.3950 nb         1 INP      -0.661000
     40 C40         -2.4000     3.1030    -9.3370 ca         1 INP       0.331400
     41 C41         -2.3090     2.6180    -8.0400 ca         1 INP      -0.144500
     42 O42         -0.8150     0.1310    -0.2080 o          1 INP      -0.473100
     43 H1          -4.2430    -2.0440     9.5010 ha         1 INP       0.114500
     44 H2          -2.8290    -0.3580     8.3980 ha         1 INP       0.115500
     45 H4          -4.9510    -0.9740     4.7320 ha         1 INP       0.115500
     46 H5          -6.3750    -2.6540     5.8370 ha         1 INP       0.114500
     47 H6          -6.0230    -3.1980     8.2270 ha         1 INP       0.113000
     48 H71         -2.8030     1.3470     6.4430 h1         1 INP       0.058200
     49 H72         -3.3370     0.7690     4.8600 h1         1 INP       0.058200
     50 HN1          0.4640    -1.0680     5.3100 hn         1 INP       0.320500
     51 H12          1.6170     1.5030     4.3980 h1         1 INP       0.102700
     52 H131         3.3970    -0.0830     3.3520 h1         1 INP       0.036200
     53 H132         2.1750    -1.3380     3.4920 h1         1 INP       0.036200
     54 H151         3.4940     0.0250     0.9290 h1         1 INP       0.043200
     55 H152         2.4670    -1.4180     0.9790 h1         1 INP       0.043200
     56 H161        -0.0190    -0.9220     2.2300 h1         1 INP       0.077700
     57 H162        -0.2460     0.8250     2.4120 h1         1 INP       0.077700
     58 H18          1.8550     1.2480    -0.3710 h1         1 INP       0.121700
     59 H191         3.7120     0.7840     5.4630 hc         1 INP       0.043700
     60 H192         3.0010    -0.7490     5.9220 hc         1 INP       0.043700
     61 H20          1.4090     0.4450     7.4270 hc         1 INP       0.048700
     62 H211         3.1100     1.0060     9.1520 hc         1 INP       0.036367
     63 H212         3.5360    -0.4760     8.3000 hc         1 INP       0.036367
     64 H213         4.3660     1.0320     7.9160 hc         1 INP       0.036367
     65 H221         3.0370     2.9310     6.7010 hc         1 INP       0.036367
     66 H222         1.3340     2.6810     6.3220 hc         1 INP       0.036367
     67 H223         1.8460     2.8360     7.9960 hc         1 INP       0.036367
     68 HN2          1.6830    -1.5440    -1.3330 hn         1 INP       0.313500
     69 H26          1.3550    -1.8890    -3.5030 h1         1 INP       0.080700
     70 H271         3.9210    -0.3970    -4.2060 hc         1 INP       0.054700
     71 H272         3.7770    -1.6680    -3.0070 hc         1 INP       0.054700
     72 H28          3.3080    -1.9980    -6.0010 hc         1 INP       0.053700
     73 H291         5.4040    -3.3140    -5.9220 hc         1 INP       0.035700
     74 H292         5.6870    -1.6610    -5.3750 hc         1 INP       0.035700
     75 H293         5.5730    -2.9720    -4.2010 hc         1 INP       0.035700
     76 H301         3.2250    -4.0820    -3.7660 hc         1 INP       0.035700
     77 H302         1.8580    -3.5820    -4.7640 hc         1 INP       0.035700
     78 H303         3.2040    -4.4410    -5.4920 hc         1 INP       0.035700
     79 HN3          1.9760     0.0160    -5.6280 hn         1 INP       0.333500
     80 H351        -2.2400    -0.0870    -6.3770 h1         1 INP       0.063700
     81 H352        -1.9720     1.5220    -5.7000 h1         1 INP       0.063700
     82 H37         -0.7310    -0.2590    -8.8290 ha         1 INP       0.127000
     83 H38         -0.9730     0.7600   -11.0570 h4         1 INP       0.019100
     84 H40         -2.8700     4.0630    -9.5240 h4         1 INP       0.019100
     85 H41         -2.7060     3.2000    -7.2180 ha         1 INP       0.127000
@<TRIPOS>BOND
     1     1     2 ar  
     2     1     6 ar  
     3     1    43 1   
     4     2     3 ar  
     5     2    44 1   
     6     3     4 ar  
     7     3     7 1   
     8     4     5 ar  
     9     4    45 1   
    10     5     6 ar  
    11     5    46 1   
    12     6    47 1   
    13     7     8 1   
    14     7    48 1   
    15     7    49 1   
    16     8     9 1   
    17     9    10 2   
    18     9    11 1   
    19    11    12 1   
    20    11    50 1   
    21    12    13 1   
    22    12    19 1   
    23    12    51 1   
    24    13    14 1   
    25    13    52 1   
    26    13    53 1   
    27    14    15 1   
    28    14    16 1   
    29    15    18 1   
    30    15    54 1   
    31    15    55 1   
    32    16    17 1   
    33    16    56 1   
    34    16    57 1   
    35    17    18 1   
    36    17    42 2   
    37    18    23 1   
    38    18    58 1   
    39    19    20 1   
    40    19    59 1   
    41    19    60 1   
    42    20    21 1   
    43    20    22 1   
    44    20    61 1   
    45    21    62 1   
    46    21    63 1   
    47    21    64 1   
    48    22    65 1   
    49    22    66 1   
    50    22    67 1   
    51    23    24 1   
    52    23    68 1   
    53    24    25 2   
    54    24    26 1   
    55    26    27 1   
    56    26    31 1   
    57    26    69 1   
    58    27    28 1   
    59    27    70 1   
    60    27    71 1   
    61    28    29 1   
    62    28    30 1   
    63    28    72 1   
    64    29    73 1   
    65    29    74 1   
    66    29    75 1   
    67    30    76 1   
    68    30    77 1   
    69    30    78 1   
    70    31    32 1   
    71    31    79 1   
    72    32    33 2   
    73    32    34 1   
    74    34    35 1   
    75    35    36 1   
    76    35    80 1   
    77    35    81 1   
    78    36    37 ar  
    79    36    41 ar  
    80    37    38 ar  
    81    37    82 1   
    82    38    39 ar  
    83    38    83 1   
    84    39    40 ar  
    85    40    41 ar  
    86    40    84 1   
    87    41    85 1   
@<TRIPOS>SUBSTRUCTURE
     1 INP         1 TEMP              0 ****  ****    0 ROOT
