@<TRIPOS>MOLECULE
INQ
   48    51     1     0     0
SMALL
bcc


@<TRIPOS>ATOM
      1 S01         -0.5570    -0.6020     5.3610 sy         1 INQ       1.328200
      2 O02         -1.5430     0.3300     5.8670 o          1 INQ      -0.594800
      3 N03         -1.2830    -2.0590     5.2500 n8         1 INQ      -0.901700
      4 C04         -0.1560    -0.0730     3.7290 cc         1 INQ      -0.302600
      5 C05         -0.9620     0.6290     2.8900 cd         1 INQ      -0.024000
      6 C06         -0.3530     0.8290     1.6190 cd         1 INQ       0.058200
      7 C07          0.8970     0.2560     1.5900 cc         1 INQ      -0.325600
      8 S08          1.3610    -0.5100     3.0500 ss         1 INQ       0.172200
      9 C09         -0.9380     1.4360     0.4610 cf         1 INQ      -0.227200
     10 C10         -0.4090     1.2680    -0.7700 c2         1 INQ       0.199800
     11 N11          0.7870     0.5770    -0.9610 nh         1 INQ      -0.501700
     12 S12          1.9520     0.5210     0.2500 sy         1 INQ       1.370200
     13 O13          2.5840     1.8200     0.3730 o          1 INQ      -0.591300
     14 O14          2.7950    -0.6340     0.0210 o          1 INQ      -0.591300
     15 C15         -1.1310     1.7350    -2.0010 c3         1 INQ       0.204000
     16 C16         -1.9140     0.8870    -4.1210 c6         1 INQ       0.132300
     17 C17         -2.4210    -0.3640    -4.8140 c6         1 INQ       0.130900
     18 O18         -3.6020    -0.8480    -4.2140 os         1 INQ      -0.399600
     19 C19         -3.3930    -1.1230    -2.8460 c6         1 INQ       0.130900
     20 C20         -2.9130     0.1040    -2.0960 c6         1 INQ       0.132300
     21 N21         -1.7060     0.6160    -2.7140 n3         1 INQ      -0.730600
     22 C22          0.9080    -1.0330    -2.7620 ca         1 INQ      -0.164000
     23 C23          1.2660     0.2070    -2.2590 ca         1 INQ       0.144600
     24 C24          2.0710     1.0780    -2.9760 ca         1 INQ      -0.172000
     25 C25          2.5110     0.6880    -4.2350 ca         1 INQ      -0.089000
     26 C26          2.1550    -0.5400    -4.7630 ca         1 INQ      -0.150000
     27 C27          1.3480    -1.4070    -4.0250 ca         1 INQ       0.140100
     28 O28          1.0170    -2.5850    -4.5880 oh         1 INQ      -0.492100
     29 O29          0.7100    -0.8130     6.0330 o          1 INQ      -0.594800
     30 H031        -2.1790    -2.0500     4.7770 hn         1 INQ       0.429300
     31 H032        -0.6830    -2.8060     4.9200 hn         1 INQ       0.429300
     32 H051        -1.9510     0.9800     3.1470 ha         1 INQ       0.171000
     33 H091        -1.8710     1.9710     0.5590 ha         1 INQ       0.158000
     34 H151        -1.8830     2.4770    -1.6960 h1         1 INQ       0.056200
     35 H152        -0.4340     2.2520    -2.6640 h1         1 INQ       0.056200
     36 H162        -0.9630     1.1770    -4.5750 h1         1 INQ       0.044450
     37 H171        -2.6500    -0.1460    -5.8590 h1         1 INQ       0.051450
     38 H172        -1.6370    -1.1330    -4.7930 h1         1 INQ       0.051450
     39 H191        -4.3420    -1.4670    -2.4320 h1         1 INQ       0.051450
     40 H192        -2.6560    -1.9300    -2.7250 h1         1 INQ       0.051450
     41 H201        -2.7080    -0.1830    -1.0620 h1         1 INQ       0.044450
     42 H202        -3.7130     0.8650    -2.0680 h1         1 INQ       0.044450
     43 H221         0.2730    -1.6850    -2.1760 ha         1 INQ       0.148000
     44 H241         2.3380     2.0450    -2.5720 ha         1 INQ       0.153000
     45 H251         3.1370     1.3540    -4.8130 ha         1 INQ       0.142000
     46 H261         2.4960    -0.8330    -5.7480 ha         1 INQ       0.151000
     47 H281         0.4840    -3.1140    -3.9840 ho         1 INQ       0.430000
     48 H161        -2.6260     1.7140    -4.2840 h1         1 INQ       0.044450
@<TRIPOS>BOND
     1     1     2 2   
     2     1     3 1   
     3     1     4 1   
     4     1    29 2   
     5     3    30 1   
     6     3    31 1   
     7     4     5 2   
     8     4     8 1   
     9     5     6 1   
    10     5    32 1   
    11     6     7 2   
    12     6     9 1   
    13     7     8 1   
    14     7    12 1   
    15     9    10 2   
    16     9    33 1   
    17    10    11 1   
    18    10    15 1   
    19    11    12 1   
    20    11    23 1   
    21    12    13 2   
    22    12    14 2   
    23    15    21 1   
    24    15    34 1   
    25    15    35 1   
    26    16    17 1   
    27    16    21 1   
    28    16    36 1   
    29    16    48 1   
    30    17    18 1   
    31    17    37 1   
    32    17    38 1   
    33    18    19 1   
    34    19    20 1   
    35    19    39 1   
    36    19    40 1   
    37    20    21 1   
    38    20    41 1   
    39    20    42 1   
    40    22    23 ar  
    41    22    27 ar  
    42    22    43 1   
    43    23    24 ar  
    44    24    25 ar  
    45    24    44 1   
    46    25    26 ar  
    47    25    45 1   
    48    26    27 ar  
    49    26    46 1   
    50    27    28 1   
    51    28    47 1   
@<TRIPOS>SUBSTRUCTURE
     1 INQ         1 TEMP              0 ****  ****    0 ROOT
