@<TRIPOS>MOLECULE
INQ
   48    51     1     0     0
SMALL
No Charge or Current Charge


@<TRIPOS>ATOM
      1 S01         -0.5610    -0.3590     5.5440 sy         1 INQ       1.186600
      2 O02         -1.5330     0.6120     6.0430 o          1 INQ      -0.524000
      3 N03         -1.3810    -1.7560     5.3750 n8         1 INQ      -1.012100
      4 C04         -0.1870    -0.0240     3.8620 cc         1 INQ      -0.447500
      5 C05         -1.0440     0.4530     2.8960 cd         1 INQ      -0.006000
      6 C06         -0.4110     0.6430     1.6370 cd         1 INQ       0.058200
      7 C07          0.9080     0.3240     1.6850 cc         1 INQ      -0.470500
      8 S08          1.4420    -0.2180     3.2520 ss         1 INQ       0.462000
      9 C09         -1.0160     1.1220     0.4060 cf         1 INQ      -0.277200
     10 C10         -0.3840     1.0880    -0.7930 c2         1 INQ       0.199800
     11 N11          0.9200     0.6010    -0.9730 nh         1 INQ      -0.640100
     12 S12          2.0070     0.4680     0.3290 sy         1 INQ       1.228600
     13 O13          2.7080     1.7500     0.4600 o          1 INQ      -0.520500
     14 O14          2.7430    -0.7960     0.2090 o          1 INQ      -0.520500
     15 C15         -1.0960     1.6200    -2.0500 c3         1 INQ       0.204000
     16 C16         -2.2520     1.0980    -4.1910 c6         1 INQ       0.132300
     17 C17         -2.9040    -0.0250    -5.0500 c6         1 INQ       0.154100
     18 O18         -3.9640    -0.6750    -4.3060 os         1 INQ      -0.446000
     19 C19         -3.4980    -1.2560    -3.0650 c6         1 INQ       0.154100
     20 C20         -2.8520    -0.1630    -2.1610 c6         1 INQ       0.132300
     21 N21         -1.7660     0.5760    -2.8780 n3         1 INQ      -0.730600
     22 C22          0.9800    -0.9890    -2.8140 ca         1 INQ      -0.146000
     23 C23          1.4250     0.2050    -2.2200 ca         1 INQ       0.283000
     24 C24          2.3720     1.0010    -2.8920 ca         1 INQ      -0.154000
     25 C25          2.8710     0.6080    -4.1460 ca         1 INQ      -0.071000
     26 C26          2.4190    -0.5870    -4.7320 ca         1 INQ      -0.132000
     27 C27          1.4740    -1.3830    -4.0670 ca         1 INQ       0.140100
     28 O28          1.0420    -2.5400    -4.6480 oh         1 INQ      -0.531100
     29 O29          0.6630    -0.7210     6.2530 o          1 INQ      -0.524000
     30 H031        -1.1420    -2.0100     4.4210 hn         1 INQ       0.484500
     31 H032        -0.8140    -2.3760     5.9470 hn         1 INQ       0.484500
     32 H051        -2.0950     0.6620     3.0700 ha         1 INQ       0.153000
     33 H091        -2.0360     1.5000     0.4770 ha         1 INQ       0.208000
     34 H151        -1.8340     2.3740    -1.7430 h1         1 INQ       0.056200
     35 H152        -0.3590     2.1580    -2.6610 h1         1 INQ       0.056200
     36 H162        -1.4180     1.5350    -4.7600 h1         1 INQ       0.044450
     37 H171        -3.3210     0.4020    -5.9730 h1         1 INQ       0.051450
     38 H172        -2.1460    -0.7710    -5.3290 h1         1 INQ       0.051450
     39 H191        -4.3460    -1.7200    -2.5430 h1         1 INQ       0.051450
     40 H192        -2.7600    -2.0410    -3.2860 h1         1 INQ       0.051450
     41 H201        -2.4570    -0.6510    -1.2580 h1         1 INQ       0.044450
     42 H202        -3.6380     0.5340    -1.8350 h1         1 INQ       0.044450
     43 H221         0.2440    -1.5940    -2.2950 ha         1 INQ       0.130000
     44 H241         2.7140     1.9300    -2.4430 ha         1 INQ       0.135000
     45 H251         3.6010     1.2270    -4.6620 ha         1 INQ       0.124000
     46 H261         2.8010    -0.8940    -5.7030 ha         1 INQ       0.133000
     47 H281         0.3860    -2.9620    -4.0530 ho         1 INQ       0.469000
     48 H161        -2.9910     1.8970    -4.0350 h1         1 INQ       0.044450
@<TRIPOS>BOND
     1     1     2 2   
     2     1     3 1   
     3     1     4 1   
     4     1    29 2   
     5     3    30 1   
     6     3    31 1   
     7     4     5 2   
     8     4     8 1   
     9     5     6 1   
    10     5    32 1   
    11     6     7 2   
    12     6     9 1   
    13     7     8 1   
    14     7    12 1   
    15     9    10 2   
    16     9    33 1   
    17    10    11 1   
    18    10    15 1   
    19    11    12 1   
    20    11    23 1   
    21    12    13 2   
    22    12    14 2   
    23    15    21 1   
    24    15    34 1   
    25    15    35 1   
    26    16    17 1   
    27    16    21 1   
    28    16    36 1   
    29    16    48 1   
    30    17    18 1   
    31    17    37 1   
    32    17    38 1   
    33    18    19 1   
    34    19    20 1   
    35    19    39 1   
    36    19    40 1   
    37    20    21 1   
    38    20    41 1   
    39    20    42 1   
    40    22    23 ar  
    41    22    27 ar  
    42    22    43 1   
    43    23    24 ar  
    44    24    25 ar  
    45    24    44 1   
    46    25    26 ar  
    47    25    45 1   
    48    26    27 ar  
    49    26    46 1   
    50    27    28 1   
    51    28    47 1   
@<TRIPOS>SUBSTRUCTURE
     1 INQ         1 TEMP              0 ****  ****    0 ROOT
