@<TRIPOS>MOLECULE
INR
   33    36     1     0     0
SMALL
bcc


@<TRIPOS>ATOM
      1 C1           5.4680    42.3340    49.5420 ca         1 INR       0.070800
      2 C2           4.5550    42.7650    50.5040 ca         1 INR      -0.250600
      3 C6           5.1260    41.3700    48.6090 ca         1 INR      -0.192000
      4 N7           6.6640    43.0050    49.7000 na         1 INR      -0.238400
      5 C3           3.2690    42.2480    50.5600 ca         1 INR      -0.013000
      6 C8           5.2230    43.7700    51.3210 c          1 INR       0.580900
      7 C4           2.9200    41.2660    49.6470 ca         1 INR      -0.197000
      8 C5           3.8410    40.8450    48.6850 ca         1 INR      -0.070000
      9 O10          4.7830    44.3860    52.2640 o          1 INR      -0.454100
     10 C9           6.6190    43.8830    50.7380 cc         1 INR      -0.021300
     11 C11          7.6510    44.6760    51.1350 cd         1 INR      -0.127400
     12 C12          8.9530    44.6330    50.4160 c          1 INR       0.705700
     13 C15          7.8170    45.6370    52.2130 ca         1 INR      -0.130800
     14 O13          9.2570    43.9490    49.4500 o          1 INR      -0.674500
     15 N14          9.7670    45.5230    51.0430 ns         1 INR      -0.461100
     16 C16          9.1320    46.1330    52.1070 ca         1 INR       0.057600
     17 C20          7.0110    46.1130    53.2350 ca         1 INR       0.035000
     18 C19          7.5220    47.0610    54.1180 ca         1 INR      -0.256500
     19 C18          8.8140    47.5470    53.9870 ca         1 INR      -0.002000
     20 S21          6.4510    47.6420    55.4220 s6         1 INR       1.255100
     21 C17          9.6390    47.0840    52.9650 ca         1 INR      -0.204000
     22 O24          7.2740    48.5440    56.2580 o          1 INR      -0.689867
     23 O23          5.9990    46.4270    56.1200 o          1 INR      -0.689867
     24 O22          5.3510    48.3440    54.7370 o          1 INR      -0.689867
     25 HC6          5.8290    41.0260    47.8610 ha         1 INR       0.138000
     26 H7           7.4960    42.8610    49.1470 hn         1 INR       0.333700
     27 HC3          2.5700    42.5860    51.3140 ha         1 INR       0.150000
     28 HC4          1.9320    40.8280    49.6720 ha         1 INR       0.130000
     29 HC5          3.5500    40.0810    47.9750 ha         1 INR       0.122000
     30 H14         10.7190    45.7040    50.7620 hn         1 INR       0.329500
     31 H20          6.0090    45.7330    53.3630 ha         1 INR       0.175000
     32 H18          9.1930    48.2790    54.6850 ha         1 INR       0.157000
     33 H17         10.6500    47.4540    52.8570 ha         1 INR       0.119000
@<TRIPOS>BOND
     1     1     2 ar  
     2     1     3 ar  
     3     1     4 1   
     4     2     5 ar  
     5     2     6 1   
     6     3     8 ar  
     7     3    25 1   
     8     4    10 1   
     9     4    26 1   
    10     5     7 ar  
    11     5    27 1   
    12     6     9 2   
    13     6    10 1   
    14     7     8 ar  
    15     7    28 1   
    16     8    29 1   
    17    10    11 2   
    18    11    12 1   
    19    11    13 1   
    20    12    14 2   
    21    12    15 1   
    22    13    16 ar  
    23    13    17 ar  
    24    15    16 1   
    25    15    30 1   
    26    16    21 ar  
    27    17    18 ar  
    28    17    31 1   
    29    18    19 ar  
    30    18    20 1   
    31    19    21 ar  
    32    19    32 1   
    33    20    22 1   
    34    20    23 1   
    35    20    24 1   
    36    21    33 1   
@<TRIPOS>SUBSTRUCTURE
     1 INR         1 TEMP              0 ****  ****    0 ROOT
