@<TRIPOS>MOLECULE
INR
   33    36     1     0     0
SMALL
No Charge or Current Charge


@<TRIPOS>ATOM
      1 C1           5.4730    42.3420    49.5700 ca         1 INR       0.070800
      2 C2           4.5300    42.7170    50.5230 ca         1 INR      -0.250600
      3 C6           5.1730    41.3850    48.5940 ca         1 INR      -0.174000
      4 N7           6.6680    43.0270    49.7400 na         1 INR      -0.288700
      5 C3           3.2450    42.1560    50.5470 ca         1 INR       0.005000
      6 C8           5.1240    43.7420    51.4190 c          1 INR       0.580900
      7 C4           2.9310    41.1900    49.5690 ca         1 INR      -0.179000
      8 C5           3.8870    40.8060    48.5980 ca         1 INR      -0.052000
      9 O10          4.5770    44.2920    52.3620 o          1 INR      -0.454100
     10 C9           6.4820    43.8640    50.8350 cc         1 INR      -0.021300
     11 C11          7.6110    44.6380    51.1470 cd         1 INR      -0.127400
     12 C12          8.9110    44.5900    50.3770 c          1 INR       0.563200
     13 C15          7.8290    45.6410    52.2310 ca         1 INR      -0.130800
     14 O13          9.2370    43.9240    49.4020 o          1 INR      -0.599000
     15 N14          9.7060    45.4910    51.0190 ns         1 INR      -0.394100
     16 C16          9.1220    46.1260    52.1000 ca         1 INR       0.057600
     17 C20          7.0150    46.1330    53.2710 ca         1 INR       0.053000
     18 C19          7.5400    47.1070    54.1550 ca         1 INR      -0.256500
     19 C18          8.8640    47.5870    53.9860 ca         1 INR       0.016000
     20 S21          6.4680    47.7560    55.5090 s6         1 INR       1.255100
     21 C17          9.6710    47.0900    52.9460 ca         1 INR      -0.186000
     22 O24          7.4430    48.3640    56.4260 o          1 INR      -0.689867
     23 O23          5.8050    46.5310    55.9790 o          1 INR      -0.689867
     24 O22          5.6130    48.6940    54.7660 o          1 INR      -0.689867
     25 HC6          5.9120    41.0950    47.8510 ha         1 INR       0.120000
     26 H7           7.5130    42.9400    49.1800 hn         1 INR       0.384000
     27 HC3          2.5140    42.4550    51.2960 ha         1 INR       0.132000
     28 HC4          1.9430    40.7350    49.5600 ha         1 INR       0.112000
     29 HC5          3.6290    40.0590    47.8510 ha         1 INR       0.104000
     30 H14         10.6550    45.6760    50.7200 hn         1 INR       0.329500
     31 H20          6.0010    45.7920    53.4180 ha         1 INR       0.157000
     32 H18          9.2700    48.3440    54.6550 ha         1 INR       0.139000
     33 H17         10.6880    47.4470    52.8070 ha         1 INR       0.101000
@<TRIPOS>BOND
     1     1     2 ar  
     2     1     3 ar  
     3     1     4 1   
     4     2     5 ar  
     5     2     6 1   
     6     3     8 ar  
     7     3    25 1   
     8     4    10 1   
     9     4    26 1   
    10     5     7 ar  
    11     5    27 1   
    12     6     9 2   
    13     6    10 1   
    14     7     8 ar  
    15     7    28 1   
    16     8    29 1   
    17    10    11 2   
    18    11    12 1   
    19    11    13 1   
    20    12    14 2   
    21    12    15 1   
    22    13    16 ar  
    23    13    17 ar  
    24    15    16 1   
    25    15    30 1   
    26    16    21 ar  
    27    17    18 ar  
    28    17    31 1   
    29    18    19 ar  
    30    18    20 1   
    31    19    21 ar  
    32    19    32 1   
    33    20    22 1   
    34    20    23 1   
    35    20    24 1   
    36    21    33 1   
@<TRIPOS>SUBSTRUCTURE
     1 INR         1 TEMP              0 ****  ****    0 ROOT
