@<TRIPOS>MOLECULE
INS
   24    24     1     0     0
SMALL
No Charge or Current Charge


@<TRIPOS>ATOM
      1 C1           1.2450    -0.8660     0.5260 c6         1 INS       0.142300
      2 C2          -0.0680    -1.6500     0.1720 c6         1 INS       0.142300
      3 C3          -1.3170    -0.7710     0.5010 c6         1 INS       0.142300
      4 C4          -1.2420     0.6170    -0.2120 c6         1 INS       0.142300
      5 C5           0.0670     1.3730     0.1730 c6         1 INS       0.142300
      6 C6           1.3110     0.5070    -0.2140 c6         1 INS       0.142300
      7 O1           2.4370    -1.6270     0.2500 oh         1 INS      -0.720667
      8 O2          -0.1230    -2.0520    -1.2140 oh         1 INS      -0.720667
      9 O3          -2.5270    -1.4490     0.1110 oh         1 INS      -0.720667
     10 O4          -2.3930     1.4150     0.1220 oh         1 INS      -0.720667
     11 O5           0.0930     2.6630    -0.4810 oh         1 INS      -0.720667
     12 O6           2.5480     1.1760     0.1210 oh         1 INS      -0.720667
     13 H1           1.2080    -0.6500     1.6060 h1         1 INS       0.058200
     14 H2          -0.1100    -2.5420     0.8160 h1         1 INS       0.058200
     15 H3          -1.3270    -0.5940     1.5880 h1         1 INS       0.058200
     16 H4          -1.2190     0.4460    -1.2990 h1         1 INS       0.058200
     17 H5           0.0700     1.5100     1.2660 h1         1 INS       0.058200
     18 H6           1.2730     0.3140    -1.2980 h1         1 INS       0.058200
     19 HO1          3.1420    -0.9390     0.1730 ho         1 INS       0.520333
     20 HO2         -1.0750    -2.2720    -1.3620 ho         1 INS       0.520333
     21 HO3         -3.2170    -0.7400     0.1070 ho         1 INS       0.520333
     22 HO4         -2.1370     2.3360    -0.1330 ho         1 INS       0.520333
     23 HO5          0.6710     3.2490     0.0640 ho         1 INS       0.520333
     24 HO6          2.6780     1.8850    -0.5540 ho         1 INS       0.520333
@<TRIPOS>BOND
     1     1     2 1   
     2     1     6 1   
     3     1     7 1   
     4     1    13 1   
     5     2     3 1   
     6     2     8 1   
     7     2    14 1   
     8     3     4 1   
     9     3     9 1   
    10     3    15 1   
    11     4     5 1   
    12     4    10 1   
    13     4    16 1   
    14     5     6 1   
    15     5    11 1   
    16     5    17 1   
    17     6    12 1   
    18     6    18 1   
    19     7    19 1   
    20     8    20 1   
    21     9    21 1   
    22    10    22 1   
    23    11    23 1   
    24    12    24 1   
@<TRIPOS>SUBSTRUCTURE
     1 INS         1 TEMP              0 ****  ****    0 ROOT
