@<TRIPOS>MOLECULE
INS
   24    24     1     0     0
SMALL
bcc


@<TRIPOS>ATOM
      1 C1           1.2110    -0.8330     0.4910 c6         1 INS       0.119100
      2 C2          -0.0740    -1.5660     0.1390 c6         1 INS       0.119100
      3 C3          -1.2730    -0.7010     0.5180 c6         1 INS       0.119100
      4 C4          -1.2220     0.6530    -0.1790 c6         1 INS       0.119100
      5 C5           0.0730     1.3750     0.1680 c6         1 INS       0.119100
      6 C6           1.2840     0.5220    -0.2060 c6         1 INS       0.119100
      7 O1           2.3010    -1.6520     0.1580 oh         1 INS      -0.598467
      8 O2          -0.0610    -1.8710    -1.2350 oh         1 INS      -0.598467
      9 O3          -2.4340    -1.4200     0.1730 oh         1 INS      -0.598467
     10 O4          -2.3560     1.3770     0.2460 oh         1 INS      -0.598467
     11 O5           0.0700     2.6050    -0.5250 oh         1 INS      -0.598467
     12 O6           2.4890     1.1370     0.2060 oh         1 INS      -0.598467
     13 H1           1.1810    -0.6500     1.5780 h1         1 INS       0.058200
     14 H2          -0.1180    -2.4860     0.7420 h1         1 INS       0.058200
     15 H3          -1.2310    -0.5280     1.6050 h1         1 INS       0.058200
     16 H4          -1.2560     0.4930    -1.2660 h1         1 INS       0.058200
     17 H5           0.0940     1.5470     1.2550 h1         1 INS       0.058200
     18 H6           1.2870     0.3660    -1.2930 h1         1 INS       0.058200
     19 HO1          3.1040    -1.1420     0.3130 ho         1 INS       0.421333
     20 HO2         -0.9330    -2.2080    -1.4700 ho         1 INS       0.421333
     21 HO3         -3.1890    -0.8260     0.2410 ho         1 INS       0.421333
     22 HO4         -2.4060     2.1880    -0.2710 ho         1 INS       0.421333
     23 HO5          0.6700     3.2110    -0.0810 ho         1 INS       0.421333
     24 HO6          2.7770     1.7470    -0.4790 ho         1 INS       0.421333
@<TRIPOS>BOND
     1     1     2 1   
     2     1     6 1   
     3     1     7 1   
     4     1    13 1   
     5     2     3 1   
     6     2     8 1   
     7     2    14 1   
     8     3     4 1   
     9     3     9 1   
    10     3    15 1   
    11     4     5 1   
    12     4    10 1   
    13     4    16 1   
    14     5     6 1   
    15     5    11 1   
    16     5    17 1   
    17     6    12 1   
    18     6    18 1   
    19     7    19 1   
    20     8    20 1   
    21     9    21 1   
    22    10    22 1   
    23    11    23 1   
    24    12    24 1   
@<TRIPOS>SUBSTRUCTURE
     1 INS         1 TEMP              0 ****  ****    0 ROOT
