@<TRIPOS>MOLECULE
INU
   63    67     1     0     0
SMALL
abcg2


@<TRIPOS>ATOM
      1 CA          -0.8480    -0.0890     1.3450 cc         1 INU      -0.309400
      2 CA2         -0.7270    -1.4120     1.8630 c          1 INU       0.684300
      3 OA2         -1.5960    -2.2570     1.9420 o          1 INU      -0.506000
      4 OA3          0.5110    -1.7860     2.3120 os         1 INU      -0.336200
      5 CA4          1.5880    -0.9880     2.3120 cc         1 INU       0.193900
      6 CA5          1.5330     0.2650     1.8160 cd         1 INU      -0.274200
      7 CA6          0.2660     0.7060     1.3070 cd         1 INU       0.252100
      8 OA6          0.1350     1.9230     0.7930 oh         1 INU      -0.508100
      9 CB1         -2.1960     0.7100    -0.6080 ca         1 INU      -0.046300
     10 CB2         -2.5510     1.9510    -1.1230 ca         1 INU      -0.092000
     11 CB3         -2.5470     2.1760    -2.4950 ca         1 INU      -0.109000
     12 CB4         -2.2020     1.1670    -3.3790 ca         1 INU      -0.084000
     13 CB5         -1.8450    -0.0760    -2.8690 ca         1 INU       0.222000
     14 CB6         -1.8330    -0.2950    -1.5000 ca         1 INU      -0.129000
     15 CG1         -2.2030     0.3870     0.8740 c3         1 INU       0.089800
     16 CG2         -2.7470     1.4900     1.7540 cx         1 INU      -0.119700
     17 CG3         -4.2290     1.6420     1.9030 cx         1 INU      -0.130900
     18 CG4         -3.4070     1.1160     3.0430 cx         1 INU      -0.130900
     19 CD1          2.7790    -1.6340     2.9410 c3         1 INU      -0.042200
     20 CD2          2.9550    -1.2970     4.4280 c3         1 INU      -0.068400
     21 CD3          3.4240     0.1200     4.7580 c3         1 INU      -0.074400
     22 CD4          2.4250     1.2580     4.4920 c3         1 INU      -0.072400
     23 CD5          2.6480     2.0470     3.2040 c3         1 INU      -0.073400
     24 CD6          2.7030     1.1940     1.9310 c3         1 INU      -0.020200
     25 N           -1.5060    -1.1330    -3.7590 nu         1 INU      -0.859100
     26 S            0.0150    -1.1310    -4.4350 sy         1 INU       1.137600
     27 O1           0.1380    -2.4090    -5.1140 o          1 INU      -0.531000
     28 O2           0.1550     0.1060    -5.1800 o          1 INU      -0.531000
     29 CE1          1.1560    -1.0830    -3.0820 ca         1 INU      -0.302500
     30 CE2          1.4880    -2.2710    -2.4410 ca         1 INU      -0.008500
     31 CE3          2.3730    -2.2320    -1.3750 ca         1 INU      -0.133000
     32 CE4          2.9180    -1.0220    -0.9660 ca         1 INU      -0.059000
     33 CE5          2.5660     0.1580    -1.6070 ca         1 INU      -0.133000
     34 CE6          1.6770     0.1350    -2.6700 ca         1 INU      -0.008500
     35 HO6          0.9710     2.4030     0.7690 ho         1 INU       0.476000
     36 HB2         -2.8390     2.7550    -0.4590 ha         1 INU       0.120000
     37 HB3         -2.8320     3.1470    -2.8770 ha         1 INU       0.118000
     38 HB4         -2.2280     1.3340    -4.4460 ha         1 INU       0.142000
     39 HB6         -1.5410    -1.2680    -1.1210 ha         1 INU       0.117000
     40 HG1         -2.8830    -0.4630     0.9880 hc         1 INU       0.078700
     41 HG2         -2.1720     2.4090     1.7700 hc         1 INU       0.081700
     42 HG31        -4.6360     2.6420     1.9810 hc         1 INU       0.072950
     43 HG32        -4.8650     0.9450     1.3710 hc         1 INU       0.072950
     44 HG41        -3.4870     0.0630     3.2860 hc         1 INU       0.072950
     45 HG42        -3.2530     1.7590     3.9010 hc         1 INU       0.072950
     46 HD11         2.6780    -2.7150     2.8320 hc         1 INU       0.067200
     47 HD12         3.6870    -1.3560     2.4040 hc         1 INU       0.067200
     48 HD21         3.6920    -1.9990     4.8240 hc         1 INU       0.052200
     49 HD22         2.0230    -1.5080     4.9610 hc         1 INU       0.052200
     50 HD31         4.3690     0.3220     4.2420 hc         1 INU       0.041200
     51 HD32         3.6720     0.1220     5.8220 hc         1 INU       0.041200
     52 HD41         2.4790     1.9740     5.3150 hc         1 INU       0.045700
     53 HD42         1.4040     0.8680     4.5160 hc         1 INU       0.045700
     54 HD51         3.5830     2.6090     3.2740 hc         1 INU       0.042200
     55 HD52         1.8530     2.7930     3.1130 hc         1 INU       0.042200
     56 HD61         3.6300     0.6210     1.9180 hc         1 INU       0.045200
     57 HD62         2.7910     1.8480     1.0560 hc         1 INU       0.045200
     58 HN          -1.7490    -2.0580    -3.4170 hn         1 INU       0.487000
     59 HE2          1.0770    -3.2170    -2.7680 ha         1 INU       0.137000
     60 HE3          2.6470    -3.1510    -0.8750 ha         1 INU       0.115500
     61 HE4          3.6280    -1.0000    -0.1500 ha         1 INU       0.109000
     62 HE5          2.9940     1.1000    -1.2900 ha         1 INU       0.115500
     63 HE6          1.4120     1.0550    -3.1730 ha         1 INU       0.137000
@<TRIPOS>BOND
     1     1     2 1   
     2     1     7 2   
     3     1    15 1   
     4     2     3 2   
     5     2     4 1   
     6     4     5 1   
     7     5     6 2   
     8     5    19 1   
     9     6     7 1   
    10     6    24 1   
    11     7     8 1   
    12     8    35 1   
    13     9    10 ar  
    14     9    14 ar  
    15     9    15 1   
    16    10    11 ar  
    17    10    36 1   
    18    11    12 ar  
    19    11    37 1   
    20    12    13 ar  
    21    12    38 1   
    22    13    14 ar  
    23    13    25 1   
    24    14    39 1   
    25    15    16 1   
    26    15    40 1   
    27    16    17 1   
    28    16    18 1   
    29    16    41 1   
    30    17    18 1   
    31    17    42 1   
    32    17    43 1   
    33    18    44 1   
    34    18    45 1   
    35    19    20 1   
    36    19    46 1   
    37    19    47 1   
    38    20    21 1   
    39    20    48 1   
    40    20    49 1   
    41    21    22 1   
    42    21    50 1   
    43    21    51 1   
    44    22    23 1   
    45    22    52 1   
    46    22    53 1   
    47    23    24 1   
    48    23    54 1   
    49    23    55 1   
    50    24    56 1   
    51    24    57 1   
    52    25    26 1   
    53    25    58 1   
    54    26    27 2   
    55    26    28 2   
    56    26    29 1   
    57    29    30 ar  
    58    29    34 ar  
    59    30    31 ar  
    60    30    59 1   
    61    31    32 ar  
    62    31    60 1   
    63    32    33 ar  
    64    32    61 1   
    65    33    34 ar  
    66    33    62 1   
    67    34    63 1   
@<TRIPOS>SUBSTRUCTURE
     1 INU         1 TEMP              0 ****  ****    0 ROOT
