@<TRIPOS>MOLECULE
INU
   63    67     1     0     0
SMALL
No Charge or Current Charge


@<TRIPOS>ATOM
      1 CA          -0.8910    -0.0520     1.3890 cc         1 INU      -0.309400
      2 CA2         -0.7480    -1.4170     1.9200 c          1 INU       0.684300
      3 OA2         -1.6590    -2.2320     1.9670 o          1 INU      -0.506000
      4 OA3          0.4820    -1.7600     2.3780 os         1 INU      -0.336200
      5 CA4          1.5880    -0.9620     2.3970 cc         1 INU       0.193900
      6 CA5          1.4750     0.3280     1.8940 cd         1 INU      -0.274200
      7 CA6          0.2030     0.7820     1.3830 cd         1 INU       0.252100
      8 OA6          0.1120     2.0410     0.9180 oh         1 INU      -0.508100
      9 CB1         -2.2220     0.7110    -0.6220 ca         1 INU      -0.046300
     10 CB2         -2.3860     2.0360    -1.0850 ca         1 INU      -0.092000
     11 CB3         -2.2800     2.3280    -2.4550 ca         1 INU      -0.109000
     12 CB4         -2.0020     1.3020    -3.3740 ca         1 INU      -0.084000
     13 CB5         -1.8440    -0.0190    -2.9280 ca         1 INU       0.222000
     14 CB6         -1.9650    -0.3090    -1.5610 ca         1 INU      -0.129000
     15 CG1         -2.2770     0.3270     0.8630 c3         1 INU       0.089800
     16 CG2         -2.9320     1.3670     1.7810 cx         1 INU      -0.119700
     17 CG3         -4.4360     1.5140     1.8460 cx         1 INU      -0.130900
     18 CG4         -3.6810     0.9400     3.0230 cx         1 INU      -0.130900
     19 CD1          2.8080    -1.6240     2.9940 c3         1 INU      -0.042200
     20 CD2          3.0720    -1.2650     4.4770 c3         1 INU      -0.068400
     21 CD3          3.6030     0.1670     4.7610 c3         1 INU      -0.074400
     22 CD4          2.5900     1.3220     4.5380 c3         1 INU      -0.072400
     23 CD5          2.7460     2.1060     3.2090 c3         1 INU      -0.073400
     24 CD6          2.6810     1.2560     1.9220 c3         1 INU      -0.020200
     25 N           -1.5370    -1.0430    -3.8150 nu         1 INU      -0.859100
     26 S           -0.0410    -1.2400    -4.5470 sy         1 INU       1.137600
     27 O1          -0.1140    -2.6040    -5.0750 o          1 INU      -0.531000
     28 O2           0.1010    -0.0640    -5.4110 o          1 INU      -0.531000
     29 CE1          1.1220    -1.1670    -3.1790 ca         1 INU      -0.302500
     30 CE2          1.4640    -2.3400    -2.4730 ca         1 INU      -0.008500
     31 CE3          2.3490    -2.2690    -1.3820 ca         1 INU      -0.133000
     32 CE4          2.8950    -1.0340    -0.9940 ca         1 INU      -0.059000
     33 CE5          2.5480     0.1350    -1.6900 ca         1 INU      -0.133000
     34 CE6          1.6600     0.0740    -2.7780 ca         1 INU      -0.008500
     35 HO6          0.9950     2.4360     1.0410 ho         1 INU       0.476000
     36 HB2         -2.5810     2.8500    -0.3910 ha         1 INU       0.120000
     37 HB3         -2.4010     3.3510    -2.8040 ha         1 INU       0.118000
     38 HB4         -1.9110     1.5320    -4.4320 ha         1 INU       0.142000
     39 HB6         -1.8250    -1.3300    -1.2150 ha         1 INU       0.117000
     40 HG1         -2.9430    -0.5430     0.8910 hc         1 INU       0.078700
     41 HG2         -2.3520     2.2820     1.8690 hc         1 INU       0.081700
     42 HG31        -4.8410     2.5180     1.9430 hc         1 INU       0.072950
     43 HG32        -5.0430     0.8350     1.2520 hc         1 INU       0.072950
     44 HG41        -3.7830    -0.1250     3.2200 hc         1 INU       0.072950
     45 HG42        -3.5790     1.5580     3.9110 hc         1 INU       0.072950
     46 HD11         2.6770    -2.7110     2.9340 hc         1 INU       0.067200
     47 HD12         3.7030    -1.4180     2.3980 hc         1 INU       0.067200
     48 HD21         3.8130    -1.9750     4.8640 hc         1 INU       0.052200
     49 HD22         2.1570    -1.4370     5.0580 hc         1 INU       0.052200
     50 HD31         4.5180     0.3480     4.1840 hc         1 INU       0.041200
     51 HD32         3.9080     0.1940     5.8150 hc         1 INU       0.041200
     52 HD41         2.7100     2.0420     5.3570 hc         1 INU       0.045700
     53 HD42         1.5650     0.9420     4.6290 hc         1 INU       0.045700
     54 HD51         3.7010     2.6470     3.2240 hc         1 INU       0.042200
     55 HD52         1.9610     2.8710     3.1700 hc         1 INU       0.042200
     56 HD61         3.6170     0.6960     1.8270 hc         1 INU       0.045200
     57 HD62         2.6920     1.9250     1.0540 hc         1 INU       0.045200
     58 HN          -1.7230    -1.9720    -3.4640 hn         1 INU       0.487000
     59 HE2          1.0470    -3.3040    -2.7600 ha         1 INU       0.137000
     60 HE3          2.6130    -3.1730    -0.8390 ha         1 INU       0.115500
     61 HE4          3.5830    -0.9840    -0.1540 ha         1 INU       0.109000
     62 HE5          2.9660     1.0920    -1.3870 ha         1 INU       0.115500
     63 HE6          1.3920     0.9900    -3.3030 ha         1 INU       0.137000
@<TRIPOS>BOND
     1     1     2 1   
     2     1     7 2   
     3     1    15 1   
     4     2     3 2   
     5     2     4 1   
     6     4     5 1   
     7     5     6 2   
     8     5    19 1   
     9     6     7 1   
    10     6    24 1   
    11     7     8 1   
    12     8    35 1   
    13     9    10 ar  
    14     9    14 ar  
    15     9    15 1   
    16    10    11 ar  
    17    10    36 1   
    18    11    12 ar  
    19    11    37 1   
    20    12    13 ar  
    21    12    38 1   
    22    13    14 ar  
    23    13    25 1   
    24    14    39 1   
    25    15    16 1   
    26    15    40 1   
    27    16    17 1   
    28    16    18 1   
    29    16    41 1   
    30    17    18 1   
    31    17    42 1   
    32    17    43 1   
    33    18    44 1   
    34    18    45 1   
    35    19    20 1   
    36    19    46 1   
    37    19    47 1   
    38    20    21 1   
    39    20    48 1   
    40    20    49 1   
    41    21    22 1   
    42    21    50 1   
    43    21    51 1   
    44    22    23 1   
    45    22    52 1   
    46    22    53 1   
    47    23    24 1   
    48    23    54 1   
    49    23    55 1   
    50    24    56 1   
    51    24    57 1   
    52    25    26 1   
    53    25    58 1   
    54    26    27 2   
    55    26    28 2   
    56    26    29 1   
    57    29    30 ar  
    58    29    34 ar  
    59    30    31 ar  
    60    30    59 1   
    61    31    32 ar  
    62    31    60 1   
    63    32    33 ar  
    64    32    61 1   
    65    33    34 ar  
    66    33    62 1   
    67    34    63 1   
@<TRIPOS>SUBSTRUCTURE
     1 INU         1 TEMP              0 ****  ****    0 ROOT
