@<TRIPOS>MOLECULE
INV
   34    35     1     0     0
SMALL
abcg2


@<TRIPOS>ATOM
      1 C01         -1.9470     0.1750     2.0120 ca         1 INV      -0.097500
      2 C02         -1.3370     0.1390     3.2560 ca         1 INV      -0.017000
      3 C03          0.0460     0.1320     3.3270 ca         1 INV      -0.252500
      4 C04          0.8290     0.1640     2.1810 ca         1 INV      -0.017000
      5 C05          0.2090     0.1800     0.9440 ca         1 INV      -0.097500
      6 C06         -1.1820     0.1800     0.8520 ca         1 INV      -0.098600
      7 C07         -1.8940     0.2260    -0.4660 c          1 INV       0.607700
      8 O08         -2.9770     0.7810    -0.5730 o          1 INV      -0.589100
      9 N09         -1.2590    -0.3760    -1.4850 ns         1 INV      -0.502900
     10 C10         -1.7770    -0.4300    -2.8350 c3         1 INV       0.148300
     11 S11          0.8500     0.1400     4.9080 sy         1 INV       1.128600
     12 NP2          1.6410    -1.3060     4.8680 n8         1 INV      -1.013100
     13 O13         -0.1830     0.1960     5.9310 o          1 INV      -0.540000
     14 O14          1.8860     1.1620     4.9090 o          1 INV      -0.540000
     15 C15         -0.6730    -0.2620    -3.8440 ca         1 INV      -0.132300
     16 C16         -0.3840    -1.2700    -4.7560 ca         1 INV      -0.070000
     17 C17          0.6260    -1.1190    -5.6980 ca         1 INV      -0.154000
     18 C18          1.3450     0.0580    -5.7070 ca         1 INV       0.179000
     19 C19          1.0910     1.0820    -4.8120 ca         1 INV      -0.154000
     20 C20          0.0780     0.9120    -3.8820 ca         1 INV      -0.070000
     21 F21          2.3250     0.2160    -6.6120 f          1 INV      -0.176000
     22 H011        -3.0270     0.1890     1.9500 ha         1 INV       0.131000
     23 H021        -1.9440     0.1190     4.1510 ha         1 INV       0.141500
     24 H041         1.9090     0.1720     2.2400 ha         1 INV       0.141500
     25 H051         0.8270     0.2190     0.0560 ha         1 INV       0.131000
     26 H091        -0.4470    -0.9400    -1.2880 hn         1 INV       0.318500
     27 H101        -2.2960    -1.3780    -3.0050 h1         1 INV       0.064700
     28 H102        -2.5170     0.3620    -2.9460 h1         1 INV       0.064700
     29 HP21         2.4310    -1.3210     5.5050 hn         1 INV       0.477000
     30 HP22         1.0310    -2.1000     5.0340 hn         1 INV       0.477000
     31 H161        -0.9540    -2.1910    -4.7380 ha         1 INV       0.121000
     32 H171         0.8480    -1.9060    -6.4070 ha         1 INV       0.135000
     33 H191         1.6710     1.9950    -4.8430 ha         1 INV       0.135000
     34 H201        -0.1290     1.7090    -3.1780 ha         1 INV       0.121000
@<TRIPOS>BOND
     1     1     2 ar  
     2     1     6 ar  
     3     1    22 1   
     4     2     3 ar  
     5     2    23 1   
     6     3     4 ar  
     7     3    11 1   
     8     4     5 ar  
     9     4    24 1   
    10     5     6 ar  
    11     5    25 1   
    12     6     7 1   
    13     7     8 2   
    14     7     9 1   
    15     9    10 1   
    16     9    26 1   
    17    10    15 1   
    18    10    27 1   
    19    10    28 1   
    20    11    12 1   
    21    11    13 2   
    22    11    14 2   
    23    12    29 1   
    24    12    30 1   
    25    15    16 ar  
    26    15    20 ar  
    27    16    17 ar  
    28    16    31 1   
    29    17    18 ar  
    30    17    32 1   
    31    18    19 ar  
    32    18    21 1   
    33    19    20 ar  
    34    19    33 1   
    35    20    34 1   
@<TRIPOS>SUBSTRUCTURE
     1 INV         1 TEMP              0 ****  ****    0 ROOT
