@<TRIPOS>MOLECULE
INV
   34    35     1     0     0
SMALL
No Charge or Current Charge


@<TRIPOS>ATOM
      1 C01         -1.9550    -0.0020     2.0970 ca         1 INV      -0.097500
      2 C02         -1.2910     0.0050     3.3360 ca         1 INV      -0.017000
      3 C03          0.1160     0.0110     3.3840 ca         1 INV      -0.252500
      4 C04          0.8510     0.0060     2.1830 ca         1 INV      -0.017000
      5 C05          0.1850    -0.0010     0.9440 ca         1 INV      -0.097500
      6 C06         -1.2310    -0.0040     0.8820 ca         1 INV      -0.098600
      7 C07         -1.9850    -0.0120    -0.4350 c          1 INV       0.607700
      8 O08         -3.2080    -0.0160    -0.4890 o          1 INV      -0.589100
      9 N09         -1.2280    -0.0130    -1.5860 ns         1 INV      -0.502900
     10 C10         -1.7820    -0.0200    -2.9360 c3         1 INV       0.148300
     11 S11          0.9680     0.0200     4.9670 sy         1 INV       1.128600
     12 NP2          1.1500    -1.5670     5.3000 n8         1 INV      -1.013100
     13 O13          0.0880     0.4930     6.0330 o          1 INV      -0.540000
     14 O14          2.3420     0.4970     4.8200 o          1 INV      -0.540000
     15 C15         -0.6720    -0.0210    -3.9750 ca         1 INV      -0.132300
     16 C16         -0.1480    -1.2390    -4.4510 ca         1 INV      -0.070000
     17 C17          0.8830    -1.2390    -5.4080 ca         1 INV      -0.154000
     18 C18          1.3910    -0.0220    -5.8880 ca         1 INV       0.179000
     19 C19          0.8760     1.1960    -5.4170 ca         1 INV      -0.154000
     20 C20         -0.1550     1.1980    -4.4600 ca         1 INV      -0.070000
     21 F21          2.3810    -0.0220    -6.8060 f          1 INV      -0.176000
     22 H011        -3.0430    -0.0060     2.0860 ha         1 INV       0.131000
     23 H021        -1.8760     0.0040     4.2550 ha         1 INV       0.141500
     24 H041         1.9400     0.0070     2.2020 ha         1 INV       0.141500
     25 H051         0.7900    -0.0040     0.0410 ha         1 INV       0.131000
     26 H091        -0.2230    -0.0090    -1.4820 hn         1 INV       0.318500
     27 H101        -2.4120    -0.9110    -3.0620 h1         1 INV       0.064700
     28 H102        -2.4180     0.8660    -3.0690 h1         1 INV       0.064700
     29 HP21         2.1490    -1.5990     5.4900 hn         1 INV       0.477000
     30 HP22         0.7540    -1.6020     6.2360 hn         1 INV       0.477000
     31 H161        -0.5370    -2.1850    -4.0790 ha         1 INV       0.121000
     32 H171         1.2880    -2.1770    -5.7760 ha         1 INV       0.135000
     33 H191         1.2760     2.1340    -5.7920 ha         1 INV       0.135000
     34 H201        -0.5500     2.1440    -4.0950 ha         1 INV       0.121000
@<TRIPOS>BOND
     1     1     2 ar  
     2     1     6 ar  
     3     1    22 1   
     4     2     3 ar  
     5     2    23 1   
     6     3     4 ar  
     7     3    11 1   
     8     4     5 ar  
     9     4    24 1   
    10     5     6 ar  
    11     5    25 1   
    12     6     7 1   
    13     7     8 2   
    14     7     9 1   
    15     9    10 1   
    16     9    26 1   
    17    10    15 1   
    18    10    27 1   
    19    10    28 1   
    20    11    12 1   
    21    11    13 2   
    22    11    14 2   
    23    12    29 1   
    24    12    30 1   
    25    15    16 ar  
    26    15    20 ar  
    27    16    17 ar  
    28    16    31 1   
    29    17    18 ar  
    30    17    32 1   
    31    18    19 ar  
    32    18    21 1   
    33    19    20 ar  
    34    19    33 1   
    35    20    34 1   
@<TRIPOS>SUBSTRUCTURE
     1 INV         1 TEMP              0 ****  ****    0 ROOT
