@<TRIPOS>MOLECULE
INW
   34    35     1     0     0
SMALL
abcg2


@<TRIPOS>ATOM
      1 C01         -1.7420     0.3330     2.1670 ca         1 INW      -0.096500
      2 C02         -1.1130     0.2260     3.3930 ca         1 INW      -0.019000
      3 C03          0.2510    -0.0330     3.4320 ca         1 INW      -0.252500
      4 C04          0.9890    -0.1900     2.2710 ca         1 INW      -0.019000
      5 C05          0.3440    -0.1020     1.0460 ca         1 INW      -0.096500
      6 C06         -1.0210     0.1570     0.9870 ca         1 INW      -0.098600
      7 C07         -1.7440     0.3140    -0.3160 c          1 INW       0.612700
      8 O08         -2.6700     1.1030    -0.4210 o          1 INW      -0.583100
      9 N09         -1.3010    -0.4640    -1.3150 ns         1 INW      -0.502900
     10 C10         -1.8310    -0.4290    -2.6600 c3         1 INW       0.155300
     11 S11          1.0590    -0.1290     5.0070 sy         1 INW       1.125600
     12 NP2          0.5490    -1.6070     5.5310 n8         1 INW      -1.006100
     13 O13          0.4660     0.8440     5.9120 o          1 INW      -0.540000
     14 O14          2.4950    -0.0690     4.7730 o          1 INW      -0.540000
     15 C15         -0.7330    -0.3200    -3.6810 ca         1 INW      -0.176300
     16 C16          0.0510     0.8220    -3.7760 ca         1 INW       0.219000
     17 C17          1.0720     0.9650    -4.6940 ca         1 INW      -0.203000
     18 C18          1.3060    -0.0960    -5.5500 ca         1 INW       0.208000
     19 C19          0.5650    -1.2590    -5.5060 ca         1 INW      -0.173000
     20 C20         -0.4490    -1.3550    -4.5640 ca         1 INW      -0.050000
     21 F21          2.2900     0.0200    -6.4500 f          1 INW      -0.169000
     22 F22         -0.1970     1.8400    -2.9430 f          1 INW      -0.161000
     23 H011        -2.8020     0.5460     2.1280 ha         1 INW       0.131000
     24 H021        -1.6850     0.3500     4.3030 ha         1 INW       0.141000
     25 H041         2.0540    -0.3710     2.3050 ha         1 INW       0.141000
     26 H051         0.9300    -0.2080     0.1430 ha         1 INW       0.131000
     27 H091        -0.6270    -1.1850    -1.1110 hn         1 INW       0.317500
     28 H101        -2.4150    -1.3310    -2.8550 h1         1 INW       0.070200
     29 H102        -2.5190     0.4130    -2.7340 h1         1 INW       0.070200
     30 HP21         0.6460    -1.6990     6.5380 hn         1 INW       0.475000
     31 HP22         1.0160    -2.3760     5.0600 hn         1 INW       0.475000
     32 H171         1.6600     1.8720    -4.7420 ha         1 INW       0.154000
     33 H191         0.7730    -2.0720    -6.1870 ha         1 INW       0.140000
     34 H201        -1.0400    -2.2610    -4.5170 ha         1 INW       0.121000
@<TRIPOS>BOND
     1     1     2 ar  
     2     1     6 ar  
     3     1    23 1   
     4     2     3 ar  
     5     2    24 1   
     6     3     4 ar  
     7     3    11 1   
     8     4     5 ar  
     9     4    25 1   
    10     5     6 ar  
    11     5    26 1   
    12     6     7 1   
    13     7     8 2   
    14     7     9 1   
    15     9    10 1   
    16     9    27 1   
    17    10    15 1   
    18    10    28 1   
    19    10    29 1   
    20    11    12 1   
    21    11    13 2   
    22    11    14 2   
    23    12    30 1   
    24    12    31 1   
    25    15    16 ar  
    26    15    20 ar  
    27    16    17 ar  
    28    16    22 1   
    29    17    18 ar  
    30    17    32 1   
    31    18    19 ar  
    32    18    21 1   
    33    19    20 ar  
    34    19    33 1   
    35    20    34 1   
@<TRIPOS>SUBSTRUCTURE
     1 INW         1 TEMP              0 ****  ****    0 ROOT
