@<TRIPOS>MOLECULE
INW
   34    35     1     0     0
SMALL
No Charge or Current Charge


@<TRIPOS>ATOM
      1 C01         -1.8660     0.2260     2.2910 ca         1 INW      -0.096500
      2 C02         -1.2000     0.1040     3.5220 ca         1 INW      -0.019000
      3 C03          0.1810    -0.1710     3.5540 ca         1 INW      -0.252500
      4 C04          0.8860    -0.3250     2.3440 ca         1 INW      -0.019000
      5 C05          0.2170    -0.2020     1.1130 ca         1 INW      -0.096500
      6 C06         -1.1730     0.0770     1.0680 ca         1 INW      -0.098600
      7 C07         -1.9290     0.2170    -0.2410 c          1 INW       0.612700
      8 O08         -3.1290     0.4560    -0.2800 o          1 INW      -0.583100
      9 N09         -1.2020     0.0620    -1.4000 ns         1 INW      -0.502900
     10 C10         -1.7650     0.1650    -2.7430 c3         1 INW       0.155300
     11 S11          1.0370    -0.3280     5.1270 sy         1 INW       1.125600
     12 NP2          0.9030    -1.9190     5.4650 n8         1 INW      -1.006100
     13 O13          0.2830     0.3150     6.2010 o          1 INW      -0.540000
     14 O14          2.4760    -0.1350     4.9620 o          1 INW      -0.540000
     15 C15         -0.6840    -0.0250    -3.7960 ca         1 INW      -0.176300
     16 C16         -0.0030     1.0820    -4.3470 ca         1 INW       0.219000
     17 C17          0.9930     0.8970    -5.3160 ca         1 INW      -0.203000
     18 C18          1.3170    -0.3990    -5.7390 ca         1 INW       0.208000
     19 C19          0.6500    -1.5080    -5.2000 ca         1 INW      -0.173000
     20 C20         -0.3490    -1.3240    -4.2280 ca         1 INW      -0.050000
     21 F21          2.2760    -0.5790    -6.6720 f          1 INW      -0.169000
     22 F22         -0.3010     2.3370    -3.9440 f          1 INW      -0.161000
     23 H011        -2.9330     0.4390     2.2930 ha         1 INW       0.131000
     24 H021        -1.7610     0.2220     4.4480 ha         1 INW       0.141000
     25 H041         1.9530    -0.5420     2.3510 ha         1 INW       0.141000
     26 H051         0.7980    -0.3280     0.2040 ha         1 INW       0.131000
     27 H091        -0.2160    -0.1350    -1.3080 hn         1 INW       0.317500
     28 H101        -2.5400    -0.6030    -2.8650 h1         1 INW       0.070200
     29 H102        -2.2460     1.1450    -2.8590 h1         1 INW       0.070200
     30 HP21         0.5190    -1.8740     6.4060 hn         1 INW       0.475000
     31 HP22         1.8770    -2.1510     5.6440 hn         1 INW       0.475000
     32 H171         1.5130     1.7530    -5.7340 ha         1 INW       0.154000
     33 H191         0.9090    -2.5100    -5.5350 ha         1 INW       0.140000
     34 H201        -0.8620    -2.1900    -3.8120 ha         1 INW       0.121000
@<TRIPOS>BOND
     1     1     2 ar  
     2     1     6 ar  
     3     1    23 1   
     4     2     3 ar  
     5     2    24 1   
     6     3     4 ar  
     7     3    11 1   
     8     4     5 ar  
     9     4    25 1   
    10     5     6 ar  
    11     5    26 1   
    12     6     7 1   
    13     7     8 2   
    14     7     9 1   
    15     9    10 1   
    16     9    27 1   
    17    10    15 1   
    18    10    28 1   
    19    10    29 1   
    20    11    12 1   
    21    11    13 2   
    22    11    14 2   
    23    12    30 1   
    24    12    31 1   
    25    15    16 ar  
    26    15    20 ar  
    27    16    17 ar  
    28    16    22 1   
    29    17    18 ar  
    30    17    32 1   
    31    18    19 ar  
    32    18    21 1   
    33    19    20 ar  
    34    19    33 1   
    35    20    34 1   
@<TRIPOS>SUBSTRUCTURE
     1 INW         1 TEMP              0 ****  ****    0 ROOT
