@<TRIPOS>MOLECULE
INX
   77    78     1     0     0
SMALL
No Charge or Current Charge


@<TRIPOS>ATOM
      1 C1          13.6520    16.5110    11.4100 ca         1 INX       0.194100
      2 C2          13.5100    16.5450    10.0030 ca         1 INX      -0.255000
      3 C3          12.2360    16.6210     9.4200 ca         1 INX      -0.092000
      4 C4          11.0870    16.6720    10.2280 ca         1 INX      -0.192300
      5 C5          11.2240    16.6370    11.6280 ca         1 INX      -0.055000
      6 C6          12.5000    16.5500    12.2210 ca         1 INX      -0.155600
      7 C7           9.7070    16.7680     9.5900 c3         1 INX      -0.006100
      8 C8           9.0630    18.1680     9.7210 c3         1 INX       0.026700
      9 O9          14.8950    16.4600    12.0150 os         1 INX      -0.257100
     10 N10          7.6890    18.1440     9.1550 ns         1 INX      -0.512900
     11 C11          9.9440    19.2700     9.0600 c          1 INX       0.607100
     12 C12          6.6840    19.0150     9.5270 c          1 INX       0.579100
     13 N13          9.5660    19.6570     7.7880 ns         1 INX      -0.518900
     14 O14         10.8580    19.8270     9.6540 o          1 INX      -0.563100
     15 C15         10.2580    20.6540     6.9710 c3         1 INX       0.115000
     16 C16         11.6400    20.1780     6.4690 c3         1 INX      -0.101400
     17 C17         11.5900    18.8780     5.6270 c3         1 INX      -0.070400
     18 C18         12.9420    18.4870     4.9840 c3         1 INX      -0.067400
     19 C19         14.0510    18.1220     5.9930 c3         1 INX      -0.096100
     20 O20          6.8840    19.9040    10.3460 o          1 INX      -0.594100
     21 C21          5.3170    18.7840     8.8170 c3         1 INX       0.048700
     22 N22          4.2250    19.4980     9.5160 ns         1 INX      -0.485900
     23 C23         16.1260    16.4270    11.2550 c3         1 INX       0.012600
     24 C24         17.4000    16.3890    12.1540 c          1 INX       0.725000
     25 O25         18.4870    16.3350    11.5930 o          1 INX      -0.727500
     26 O26         17.2840    16.4140    13.3740 o          1 INX      -0.727500
     27 C27         12.6200    16.5060    13.7140 c          1 INX       0.728600
     28 O28         12.9940    15.4640    14.2340 o          1 INX      -0.720000
     29 O29         12.2310    17.4770    14.3470 o          1 INX      -0.720000
     30 C30          5.3890    19.2060     7.3280 c3         1 INX      -0.041100
     31 C31          4.0800    18.9980     6.5750 ca         1 INX      -0.067300
     32 C32          3.6270    17.6950     6.2900 ca         1 INX      -0.092500
     33 C33          2.4250    17.4990     5.5880 ca         1 INX      -0.097500
     34 C34          1.6680    18.6050     5.1660 ca         1 INX      -0.101000
     35 C35          2.1150    19.9070     5.4460 ca         1 INX      -0.097500
     36 C36          3.3170    20.1040     6.1470 ca         1 INX      -0.092500
     37 C37          3.6650    19.0870    10.7050 c          1 INX       0.641100
     38 C38          2.6060    20.0390    11.2930 c3         1 INX      -0.113400
     39 C39          1.1790    19.4230    11.3380 c3         1 INX      -0.203400
     40 C40          0.6250    19.2150     9.9180 c          1 INX       0.719000
     41 O41          0.0480    20.1490     9.3840 o          1 INX      -0.745000
     42 O42          0.8190    18.1380     9.3790 o          1 INX      -0.745000
     43 O43          4.0330    18.0690    11.2770 o          1 INX      -0.626100
     44 HC2         14.3750    16.5170     9.3490 ha         1 INX       0.093000
     45 HC3         12.1420    16.6490     8.3370 ha         1 INX       0.062000
     46 HC5         10.3400    16.6720    12.2610 ha         1 INX       0.110000
     47 HC71         9.7600    16.4990     8.5270 hc         1 INX       0.026700
     48 HC72         9.0420    16.0300    10.0550 hc         1 INX       0.026700
     49 HC8          9.0000    18.4230    10.7860 h1         1 INX       0.113700
     50 HN10         7.4450    17.4110     8.4980 hn         1 INX       0.313500
     51 HN13         8.7740    19.1700     7.3890 hn         1 INX       0.301500
     52 H151         9.6220    20.8940     6.1090 h1         1 INX       0.036200
     53 H152        10.3810    21.5720     7.5620 h1         1 INX       0.036200
     54 H161        12.0820    20.9800     5.8660 hc         1 INX       0.055200
     55 H162        12.3010    20.0320     7.3310 hc         1 INX       0.055200
     56 H171        11.2370    18.0480     6.2500 hc         1 INX       0.030700
     57 H172        10.8520    19.0060     4.8250 hc         1 INX       0.030700
     58 H181        12.7780    17.6270     4.3240 hc         1 INX       0.016200
     59 H182        13.2920    19.3080     4.3460 hc         1 INX       0.016200
     60 H191        14.9590    17.8100     5.4630 hc         1 INX       0.041700
     61 H192        14.3090    18.9790     6.6270 hc         1 INX       0.041700
     62 H193        13.7340    17.2950     6.6380 hc         1 INX       0.041700
     63 HC21         5.1090    17.7070     8.8630 h1         1 INX       0.080700
     64 HN22         3.8710    20.3590     9.1180 hn         1 INX       0.314500
     65 H231        16.1440    15.5400    10.6080 h1         1 INX      -0.000800
     66 H232        16.1960    17.3180    10.6160 h1         1 INX      -0.000800
     67 H301         5.6970    20.2580     7.2730 hc         1 INX       0.047700
     68 H302         6.1830    18.6360     6.8300 hc         1 INX       0.047700
     69 HC32         4.2070    16.8330     6.6100 ha         1 INX       0.101000
     70 HC33         2.0800    16.4910     5.3710 ha         1 INX       0.096500
     71 HC34         0.7380    18.4540     4.6230 ha         1 INX       0.095000
     72 HC35         1.5300    20.7640     5.1190 ha         1 INX       0.096500
     73 HC36         3.6540    21.1160     6.3570 ha         1 INX       0.101000
     74 H381         2.8990    20.2750    12.3230 hc         1 INX       0.029200
     75 H382         2.5700    20.9700    10.7150 hc         1 INX       0.029200
     76 H391         1.2700    18.4650    11.8650 hc         1 INX       0.028200
     77 H392         0.5670    20.1590    11.8730 hc         1 INX       0.028200
@<TRIPOS>BOND
     1     1     2 ar  
     2     1     6 ar  
     3     1     9 1   
     4     2     3 ar  
     5     2    44 1   
     6     3     4 ar  
     7     3    45 1   
     8     4     5 ar  
     9     4     7 1   
    10     5     6 ar  
    11     5    46 1   
    12     6    27 1   
    13     7     8 1   
    14     7    47 1   
    15     7    48 1   
    16     8    10 1   
    17     8    11 1   
    18     8    49 1   
    19     9    23 1   
    20    10    12 1   
    21    10    50 1   
    22    11    13 1   
    23    11    14 2   
    24    12    20 2   
    25    12    21 1   
    26    13    15 1   
    27    13    51 1   
    28    15    16 1   
    29    15    52 1   
    30    15    53 1   
    31    16    17 1   
    32    16    54 1   
    33    16    55 1   
    34    17    18 1   
    35    17    56 1   
    36    17    57 1   
    37    18    19 1   
    38    18    58 1   
    39    18    59 1   
    40    19    60 1   
    41    19    61 1   
    42    19    62 1   
    43    21    22 1   
    44    21    30 1   
    45    21    63 1   
    46    22    37 1   
    47    22    64 1   
    48    23    24 1   
    49    23    65 1   
    50    23    66 1   
    51    24    25 1   
    52    24    26 1   
    53    27    28 1   
    54    27    29 1   
    55    30    31 1   
    56    30    67 1   
    57    30    68 1   
    58    31    32 ar  
    59    31    36 ar  
    60    32    33 ar  
    61    32    69 1   
    62    33    34 ar  
    63    33    70 1   
    64    34    35 ar  
    65    34    71 1   
    66    35    36 ar  
    67    35    72 1   
    68    36    73 1   
    69    37    38 1   
    70    37    43 2   
    71    38    39 1   
    72    38    74 1   
    73    38    75 1   
    74    39    40 1   
    75    39    76 1   
    76    39    77 1   
    77    40    41 1   
    78    40    42 1   
@<TRIPOS>SUBSTRUCTURE
     1 INX         1 TEMP              0 ****  ****    0 ROOT
