@<TRIPOS>MOLECULE
INX
   77    78     1     0     0
SMALL
bcc


@<TRIPOS>ATOM
      1 C1          13.5470    16.6630    11.2580 ca         1 INX       0.194100
      2 C2          13.3230    16.7470     9.8840 ca         1 INX      -0.273000
      3 C3          12.0280    16.7520     9.3800 ca         1 INX      -0.110000
      4 C4          10.9320    16.6970    10.2240 ca         1 INX      -0.192300
      5 C5          11.1730    16.6230    11.5950 ca         1 INX      -0.073000
      6 C6          12.4500    16.5780    12.1340 ca         1 INX      -0.155600
      7 C7           9.5310    16.7620     9.6890 c3         1 INX      -0.006100
      8 C8           8.8860    18.1440     9.8790 c3         1 INX       0.026700
      9 O9          14.7720    16.6930    11.8090 os         1 INX      -0.233900
     10 N10          7.5490    18.1160     9.3310 ns         1 INX      -0.579900
     11 C11          9.7520    19.2310     9.2380 c          1 INX       0.674100
     12 C12          6.7300    19.1790     9.4150 c          1 INX       0.646100
     13 N13          9.6420    19.3370     7.9050 ns         1 INX      -0.585900
     14 O14         10.5120    19.9080     9.9120 o          1 INX      -0.563100
     15 C15         10.4070    20.2780     7.1140 c3         1 INX       0.115000
     16 C16         11.7620    19.7470     6.6590 c3         1 INX      -0.101400
     17 C17         11.6650    18.5570     5.7100 c3         1 INX      -0.070400
     18 C18         13.0020    18.1530     5.0910 c3         1 INX      -0.067400
     19 C19         14.0330    17.6530     6.0950 c3         1 INX      -0.096100
     20 O20          7.0540    20.2210     9.9580 o          1 INX      -0.594100
     21 C21          5.3850    19.0180     8.7110 c3         1 INX       0.048700
     22 N22          4.3360    19.6630     9.4480 ns         1 INX      -0.552900
     23 C23         15.8970    16.9140    10.9870 c3         1 INX      -0.010600
     24 C24         17.1780    17.0660    11.8320 c          1 INX       0.935600
     25 O25         18.2020    17.2460    11.1440 o          1 INX      -0.832800
     26 O26         17.0840    17.0080    13.0670 o          1 INX      -0.832800
     27 C27         12.5970    16.4240    13.6470 c          1 INX       0.939200
     28 O28         13.4050    15.5690    14.0500 o          1 INX      -0.825300
     29 O29         11.8540    17.1480    14.3390 o          1 INX      -0.825300
     30 C30          5.4850    19.6120     7.2990 c3         1 INX      -0.041100
     31 C31          4.2120    19.4120     6.5250 ca         1 INX      -0.067300
     32 C32          3.8570    18.1430     6.0700 ca         1 INX      -0.110500
     33 C33          2.6670    17.9410     5.3880 ca         1 INX      -0.115500
     34 C34          1.8120    19.0090     5.1470 ca         1 INX      -0.119000
     35 C35          2.1570    20.2770     5.5930 ca         1 INX      -0.115500
     36 C36          3.3490    20.4740     6.2790 ca         1 INX      -0.110500
     37 C37          3.7100    19.0610    10.4780 c          1 INX       0.708100
     38 C38          2.6180    19.8600    11.1450 c3         1 INX      -0.113400
     39 C39          1.3900    19.0170    11.4490 c3         1 INX      -0.203400
     40 C40          0.7050    18.4200    10.2040 c          1 INX       0.929600
     41 O41          1.2450    18.6320     9.1000 o          1 INX      -0.850300
     42 O42         -0.3380    17.7700    10.4150 o          1 INX      -0.850300
     43 O43          4.0480    17.9530    10.8750 o          1 INX      -0.626100
     44 HC2         14.1490    16.8100     9.1870 ha         1 INX       0.111000
     45 HC3         11.8820    16.8080     8.3070 ha         1 INX       0.080000
     46 HC5         10.3260    16.5870    12.2710 ha         1 INX       0.128000
     47 HC71         9.5230    16.5050     8.6260 hc         1 INX       0.026700
     48 HC72         8.8970    16.0280    10.1960 hc         1 INX       0.026700
     49 HC8          8.8470    18.3710    10.9480 h1         1 INX       0.113700
     50 HN10         7.2080    17.2560     8.9290 hn         1 INX       0.313500
     51 HN13         8.9850    18.7420     7.4270 hn         1 INX       0.301500
     52 H151         9.8020    20.5420     6.2440 h1         1 INX       0.036200
     53 H152        10.5420    21.1910     7.6930 h1         1 INX       0.036200
     54 H161        12.2870    20.5660     6.1560 hc         1 INX       0.055200
     55 H162        12.3580    19.4920     7.5390 hc         1 INX       0.055200
     56 H171        11.2320    17.6980     6.2340 hc         1 INX       0.030700
     57 H172        10.9660    18.8050     4.9050 hc         1 INX       0.030700
     58 H181        12.8230    17.3730     4.3460 hc         1 INX       0.016200
     59 H182        13.4120    19.0060     4.5420 hc         1 INX       0.016200
     60 H191        14.9570    17.3610     5.5950 hc         1 INX       0.041700
     61 H192        14.2890    18.4140     6.8330 hc         1 INX       0.041700
     62 H193        13.6640    16.7790     6.6350 hc         1 INX       0.041700
     63 HC21         5.1460    17.9550     8.6180 h1         1 INX       0.080700
     64 HN22         4.0330    20.5790     9.1590 hn         1 INX       0.314500
     65 H231        16.0330    16.0860    10.2790 h1         1 INX      -0.000800
     66 H232        15.7670    17.8230    10.3850 h1         1 INX      -0.000800
     67 H301         5.7240    20.6760     7.3690 hc         1 INX       0.047700
     68 H302         6.3210    19.1330     6.7840 hc         1 INX       0.047700
     69 HC32         4.5210    17.3050     6.2520 ha         1 INX       0.119000
     70 HC33         2.4070    16.9490     5.0400 ha         1 INX       0.114500
     71 HC34         0.8830    18.8540     4.6120 ha         1 INX       0.113000
     72 HC35         1.4980    21.1160     5.4080 ha         1 INX       0.114500
     73 HC36         3.6130    21.4680     6.6220 ha         1 INX       0.119000
     74 H381         3.0350    20.2530    12.0780 hc         1 INX       0.029200
     75 H382         2.3460    20.7270    10.5400 hc         1 INX       0.029200
     76 H391         1.6550    18.2030    12.1300 hc         1 INX       0.028200
     77 H392         0.6640    19.6250    11.9960 hc         1 INX       0.028200
@<TRIPOS>BOND
     1     1     2 ar  
     2     1     6 ar  
     3     1     9 1   
     4     2     3 ar  
     5     2    44 1   
     6     3     4 ar  
     7     3    45 1   
     8     4     5 ar  
     9     4     7 1   
    10     5     6 ar  
    11     5    46 1   
    12     6    27 1   
    13     7     8 1   
    14     7    47 1   
    15     7    48 1   
    16     8    10 1   
    17     8    11 1   
    18     8    49 1   
    19     9    23 1   
    20    10    12 1   
    21    10    50 1   
    22    11    13 1   
    23    11    14 2   
    24    12    20 2   
    25    12    21 1   
    26    13    15 1   
    27    13    51 1   
    28    15    16 1   
    29    15    52 1   
    30    15    53 1   
    31    16    17 1   
    32    16    54 1   
    33    16    55 1   
    34    17    18 1   
    35    17    56 1   
    36    17    57 1   
    37    18    19 1   
    38    18    58 1   
    39    18    59 1   
    40    19    60 1   
    41    19    61 1   
    42    19    62 1   
    43    21    22 1   
    44    21    30 1   
    45    21    63 1   
    46    22    37 1   
    47    22    64 1   
    48    23    24 1   
    49    23    65 1   
    50    23    66 1   
    51    24    25 1   
    52    24    26 1   
    53    27    28 1   
    54    27    29 1   
    55    30    31 1   
    56    30    67 1   
    57    30    68 1   
    58    31    32 ar  
    59    31    36 ar  
    60    32    33 ar  
    61    32    69 1   
    62    33    34 ar  
    63    33    70 1   
    64    34    35 ar  
    65    34    71 1   
    66    35    36 ar  
    67    35    72 1   
    68    36    73 1   
    69    37    38 1   
    70    37    43 2   
    71    38    39 1   
    72    38    74 1   
    73    38    75 1   
    74    39    40 1   
    75    39    76 1   
    76    39    77 1   
    77    40    41 1   
    78    40    42 1   
@<TRIPOS>SUBSTRUCTURE
     1 INX         1 TEMP              0 ****  ****    0 ROOT
