@<TRIPOS>MOLECULE
INZ
   69    70     1     0     0
SMALL
abcg2


@<TRIPOS>ATOM
      1 C1          -0.5350     0.6290    -7.5640 c          1 INZ       0.734000
      2 O2          -0.8530    -0.1950    -8.4430 o          1 INZ      -0.746250
      3 O3          -0.7410     1.8520    -7.5640 o          1 INZ      -0.746250
      4 C4           0.8070     0.6650    -4.1510 ca         1 INZ       0.231100
      5 C5           0.8950     1.6850    -3.2010 ca         1 INZ      -0.192000
      6 C6           1.3860     1.4280    -1.9320 ca         1 INZ      -0.074500
      7 C7           1.8050     0.1520    -1.5590 ca         1 INZ      -0.221300
      8 C8           1.7130    -0.8560    -2.5120 ca         1 INZ      -0.074500
      9 C9           1.2230    -0.6200    -3.7890 ca         1 INZ      -0.192000
     10 C10          0.2210     0.0240    -6.3600 c3         1 INZ      -0.127700
     11 C11          2.3120    -0.1360    -0.1730 c3         1 INZ      -0.009100
     12 C12          1.3180    -0.9620     0.6600 c3         1 INZ       0.040700
     13 O13          0.2980     1.0040    -5.3410 os         1 INZ      -0.262100
     14 C14          1.6210    -0.4330    -6.8420 c          1 INZ       0.734000
     15 O15          1.7030    -1.6040    -7.2560 o          1 INZ      -0.746250
     16 O16          2.5220     0.4220    -6.7990 o          1 INZ      -0.746250
     17 N17          0.0840    -0.2320     0.8130 ns         1 INZ      -0.522900
     18 C18          1.9810    -1.3140     1.9890 c          1 INZ       0.613100
     19 C19         -1.0370    -0.9000     1.2490 c          1 INZ       0.634100
     20 N20          1.6920    -0.5140     3.0190 ns         1 INZ      -0.490900
     21 O21          2.7840    -2.2390     2.0360 o          1 INZ      -0.651100
     22 C22          2.2100    -0.6830     4.3570 c3         1 INZ       0.102000
     23 C23          2.7510     0.6190     4.9310 c3         1 INZ      -0.096400
     24 C24          3.1910     0.4630     6.3800 c3         1 INZ      -0.073400
     25 C25          3.7010     1.7610     6.9930 c3         1 INZ      -0.077400
     26 C26          4.1350     1.5950     8.4420 c3         1 INZ      -0.086100
     27 O27         -0.9410    -1.9780     1.8240 o          1 INZ      -0.679100
     28 N28         -2.2020    -0.2670     1.0070 ns         1 INZ      -0.483900
     29 C29         -3.4740    -0.7000     1.5200 c3         1 INZ      -0.019300
     30 C30         -3.9060     0.1580     2.7270 c3         1 INZ      -0.050100
     31 C31         -4.5790    -0.6400     0.4380 c          1 INZ       0.714000
     32 O32         -5.6630    -1.1610     0.7600 o          1 INZ      -0.717500
     33 O33         -4.3090    -0.0580    -0.6280 o          1 INZ      -0.717500
     34 C34         -2.8520     0.2380     3.7910 ca         1 INZ      -0.035300
     35 C35         -1.9580     1.3060     3.8320 ca         1 INZ      -0.104000
     36 C36         -0.9710     1.3760     4.8060 ca         1 INZ      -0.123000
     37 C37         -0.8550     0.3690     5.7550 ca         1 INZ      -0.143000
     38 C38         -1.7340    -0.7060     5.7210 ca         1 INZ      -0.123000
     39 C39         -2.7210    -0.7680     4.7460 ca         1 INZ      -0.104000
     40 HC5          0.5780     2.6860    -3.4680 ha         1 INZ       0.130500
     41 HC6          1.4480     2.2440    -1.2200 ha         1 INZ       0.075000
     42 HC8          2.0350    -1.8600    -2.2600 ha         1 INZ       0.075000
     43 HC9          1.1830    -1.4450    -4.4860 ha         1 INZ       0.130500
     44 HC10        -0.3450    -0.8450    -6.0010 h1         1 INZ       0.027700
     45 H111         2.5310     0.8000     0.3480 hc         1 INZ       0.035700
     46 H112         3.2470    -0.6970    -0.2240 hc         1 INZ       0.035700
     47 HC12         1.1510    -1.9150     0.1470 h1         1 INZ       0.088700
     48 HN17        -0.0500     0.5500     0.1890 hn         1 INZ       0.319500
     49 HN20         0.9510     0.1590     2.8890 hn         1 INZ       0.334500
     50 H221         2.9970    -1.4360     4.3280 h1         1 INZ       0.046700
     51 H222         1.4190    -1.0720     5.0060 h1         1 INZ       0.046700
     52 H231         1.9800     1.3930     4.8670 hc         1 INZ       0.043200
     53 H232         3.5900     0.9650     4.3190 hc         1 INZ       0.043200
     54 H241         3.9730    -0.3010     6.4460 hc         1 INZ       0.034200
     55 H242         2.3510     0.0880     6.9780 hc         1 INZ       0.034200
     56 H251         2.9170     2.5220     6.9290 hc         1 INZ       0.037200
     57 H252         4.5380     2.1380     6.3970 hc         1 INZ       0.037200
     58 H261         4.4780     2.5380     8.8700 hc         1 INZ       0.023367
     59 H262         3.3100     1.2340     9.0600 hc         1 INZ       0.023367
     60 H263         4.9510     0.8760     8.5310 hc         1 INZ       0.023367
     61 HN28        -2.2180     0.5390     0.4030 hn         1 INZ       0.328500
     62 HC29        -3.3680    -1.7330     1.8540 h1         1 INZ       0.068700
     63 H301        -4.1460     1.1660     2.3750 hc         1 INZ       0.050700
     64 H302        -4.8270    -0.2630     3.1330 hc         1 INZ       0.050700
     65 HC35        -2.0430     2.1000     3.0990 ha         1 INZ       0.113000
     66 HC36        -0.2940     2.2220     4.8240 ha         1 INZ       0.090500
     67 HC37        -0.0900     0.4240     6.5190 ha         1 INZ       0.087000
     68 HC38        -1.6540    -1.4950     6.4570 ha         1 INZ       0.090500
     69 HC39        -3.4050    -1.6090     4.7340 ha         1 INZ       0.113000
@<TRIPOS>BOND
     1     1     2 1   
     2     1     3 1   
     3     1    10 1   
     4     4     5 ar  
     5     4     9 ar  
     6     4    13 1   
     7     5     6 ar  
     8     5    40 1   
     9     6     7 ar  
    10     6    41 1   
    11     7     8 ar  
    12     7    11 1   
    13     8     9 ar  
    14     8    42 1   
    15     9    43 1   
    16    10    13 1   
    17    10    14 1   
    18    10    44 1   
    19    11    12 1   
    20    11    45 1   
    21    11    46 1   
    22    12    17 1   
    23    12    18 1   
    24    12    47 1   
    25    14    15 1   
    26    14    16 1   
    27    17    19 1   
    28    17    48 1   
    29    18    20 1   
    30    18    21 2   
    31    19    27 2   
    32    19    28 1   
    33    20    22 1   
    34    20    49 1   
    35    22    23 1   
    36    22    50 1   
    37    22    51 1   
    38    23    24 1   
    39    23    52 1   
    40    23    53 1   
    41    24    25 1   
    42    24    54 1   
    43    24    55 1   
    44    25    26 1   
    45    25    56 1   
    46    25    57 1   
    47    26    58 1   
    48    26    59 1   
    49    26    60 1   
    50    28    29 1   
    51    28    61 1   
    52    29    30 1   
    53    29    31 1   
    54    29    62 1   
    55    30    34 1   
    56    30    63 1   
    57    30    64 1   
    58    31    32 1   
    59    31    33 1   
    60    34    35 ar  
    61    34    39 ar  
    62    35    36 ar  
    63    35    65 1   
    64    36    37 ar  
    65    36    66 1   
    66    37    38 ar  
    67    37    67 1   
    68    38    39 ar  
    69    38    68 1   
    70    39    69 1   
@<TRIPOS>SUBSTRUCTURE
     1 INZ         1 TEMP              0 ****  ****    0 ROOT
