@<TRIPOS>MOLECULE
INZ
   69    70     1     0     0
SMALL
No Charge or Current Charge


@<TRIPOS>ATOM
      1 C1          -0.8010     0.5590    -7.6110 c          1 INZ       0.734000
      2 O2          -1.3350    -0.2340    -8.3750 o          1 INZ      -0.746250
      3 O3          -0.9960     1.7660    -7.6820 o          1 INZ      -0.746250
      4 C4           0.7570     0.6630    -4.1490 ca         1 INZ       0.231100
      5 C5           0.9660     1.7100    -3.2370 ca         1 INZ      -0.192000
      6 C6           1.5400     1.4600    -1.9800 ca         1 INZ      -0.074500
      7 C7           1.9070     0.1500    -1.6190 ca         1 INZ      -0.221300
      8 C8           1.6940    -0.9040    -2.5280 ca         1 INZ      -0.074500
      9 C9           1.1200    -0.6520    -3.7860 ca         1 INZ      -0.192000
     10 C10          0.0230    -0.0030    -6.4440 c3         1 INZ      -0.127700
     11 C11          2.5320    -0.1310    -0.2540 c3         1 INZ      -0.009100
     12 C12          1.6130    -0.9520     0.6850 c3         1 INZ       0.040700
     13 O13          0.1820     0.9740    -5.3680 os         1 INZ      -0.262100
     14 C14          1.3650    -0.4260    -7.0620 c          1 INZ       0.734000
     15 O15          1.4700    -1.5700    -7.4800 o          1 INZ      -0.746250
     16 O16          2.3130     0.3480    -7.0180 o          1 INZ      -0.746250
     17 N17          0.2660    -0.3300     0.7610 ns         1 INZ      -0.522900
     18 C18          2.2770    -1.1630     2.0830 c          1 INZ       0.613100
     19 C19         -0.8740    -0.9920     1.1230 c          1 INZ       0.634100
     20 N20          1.5430    -0.7610     3.1790 ns         1 INZ      -0.490900
     21 O21          3.3970    -1.6450     2.2100 o          1 INZ      -0.651100
     22 C22          1.9890    -0.8360     4.5690 c3         1 INZ       0.102000
     23 C23          2.6680     0.4710     5.0210 c3         1 INZ      -0.096400
     24 C24          3.1000     0.4410     6.5030 c3         1 INZ      -0.073400
     25 C25          3.7650     1.7560     6.9640 c3         1 INZ      -0.077400
     26 C26          4.1930     1.7290     8.4440 c3         1 INZ      -0.086100
     27 O27         -0.8740    -2.1330     1.5520 o          1 INZ      -0.679100
     28 N28         -1.9970    -0.2280     0.9680 ns         1 INZ      -0.483900
     29 C29         -3.3580    -0.6100     1.4200 c3         1 INZ      -0.019300
     30 C30         -3.8240     0.2730     2.6040 c3         1 INZ      -0.050100
     31 C31         -4.3720    -0.5630     0.2360 c          1 INZ       0.714000
     32 O32         -4.9870    -1.5850    -0.0390 o          1 INZ      -0.717500
     33 O33         -4.4730     0.4730    -0.4090 o          1 INZ      -0.717500
     34 C34         -2.8440     0.2910     3.7740 ca         1 INZ      -0.035300
     35 C35         -2.0090     1.4070     3.9870 ca         1 INZ      -0.104000
     36 C36         -1.1250     1.4330     5.0790 ca         1 INZ      -0.123000
     37 C37         -1.0700     0.3450     5.9650 ca         1 INZ      -0.143000
     38 C38         -1.8900    -0.7750     5.7520 ca         1 INZ      -0.123000
     39 C39         -2.7740    -0.8020     4.6590 ca         1 INZ      -0.104000
     40 HC5          0.6830     2.7230    -3.5110 ha         1 INZ       0.130500
     41 HC6          1.6970     2.2850    -1.2890 ha         1 INZ       0.075000
     42 HC8          1.9730    -1.9210    -2.2590 ha         1 INZ       0.075000
     43 HC9          0.9640    -1.4860    -4.4630 ha         1 INZ       0.130500
     44 HC10        -0.4990    -0.8950    -6.0730 h1         1 INZ       0.027700
     45 H111         2.7910     0.8110     0.2460 hc         1 INZ       0.035700
     46 H112         3.4770    -0.6700    -0.3890 hc         1 INZ       0.035700
     47 HC12         1.4910    -1.9540     0.2550 h1         1 INZ       0.088700
     48 HN17         0.1580     0.6040     0.3880 hn         1 INZ       0.319500
     49 HN20         0.6180    -0.3970     2.9830 hn         1 INZ       0.334500
     50 H221         2.6850    -1.6760     4.6880 h1         1 INZ       0.046700
     51 H222         1.1160    -1.0370     5.2030 h1         1 INZ       0.046700
     52 H231         1.9760     1.3070     4.8630 hc         1 INZ       0.043200
     53 H232         3.5470     0.6560     4.3900 hc         1 INZ       0.043200
     54 H241         3.7990    -0.3900     6.6580 hc         1 INZ       0.034200
     55 H242         2.2210     0.2430     7.1300 hc         1 INZ       0.034200
     56 H251         3.0670     2.5900     6.8110 hc         1 INZ       0.037200
     57 H252         4.6460     1.9570     6.3420 hc         1 INZ       0.037200
     58 H261         4.6580     2.6810     8.7250 hc         1 INZ       0.023367
     59 H262         3.3260     1.5650     9.0960 hc         1 INZ       0.023367
     60 H263         4.9180     0.9260     8.6230 hc         1 INZ       0.023367
     61 HN28        -1.8780     0.6880     0.5550 hn         1 INZ       0.328500
     62 HC29        -3.3310    -1.6500     1.7690 h1         1 INZ       0.068700
     63 H301        -3.9910     1.2950     2.2420 hc         1 INZ       0.050700
     64 H302        -4.8010    -0.0870     2.9460 hc         1 INZ       0.050700
     65 HC35        -2.0500     2.2560     3.3100 ha         1 INZ       0.113000
     66 HC36        -0.4860     2.2980     5.2410 ha         1 INZ       0.090500
     67 HC37        -0.3890     0.3680     6.8120 ha         1 INZ       0.087000
     68 HC38        -1.8430    -1.6210     6.4340 ha         1 INZ       0.090500
     69 HC39        -3.4100    -1.6710     4.5030 ha         1 INZ       0.113000
@<TRIPOS>BOND
     1     1     2 1   
     2     1     3 1   
     3     1    10 1   
     4     4     5 ar  
     5     4     9 ar  
     6     4    13 1   
     7     5     6 ar  
     8     5    40 1   
     9     6     7 ar  
    10     6    41 1   
    11     7     8 ar  
    12     7    11 1   
    13     8     9 ar  
    14     8    42 1   
    15     9    43 1   
    16    10    13 1   
    17    10    14 1   
    18    10    44 1   
    19    11    12 1   
    20    11    45 1   
    21    11    46 1   
    22    12    17 1   
    23    12    18 1   
    24    12    47 1   
    25    14    15 1   
    26    14    16 1   
    27    17    19 1   
    28    17    48 1   
    29    18    20 1   
    30    18    21 2   
    31    19    27 2   
    32    19    28 1   
    33    20    22 1   
    34    20    49 1   
    35    22    23 1   
    36    22    50 1   
    37    22    51 1   
    38    23    24 1   
    39    23    52 1   
    40    23    53 1   
    41    24    25 1   
    42    24    54 1   
    43    24    55 1   
    44    25    26 1   
    45    25    56 1   
    46    25    57 1   
    47    26    58 1   
    48    26    59 1   
    49    26    60 1   
    50    28    29 1   
    51    28    61 1   
    52    29    30 1   
    53    29    31 1   
    54    29    62 1   
    55    30    34 1   
    56    30    63 1   
    57    30    64 1   
    58    31    32 1   
    59    31    33 1   
    60    34    35 ar  
    61    34    39 ar  
    62    35    36 ar  
    63    35    65 1   
    64    36    37 ar  
    65    36    66 1   
    66    37    38 ar  
    67    37    67 1   
    68    38    39 ar  
    69    38    68 1   
    70    39    69 1   
@<TRIPOS>SUBSTRUCTURE
     1 INZ         1 TEMP              0 ****  ****    0 ROOT
