@<TRIPOS>MOLECULE
IO2
   31    32     1     0     0
SMALL
No Charge or Current Charge


@<TRIPOS>ATOM
      1 C1           6.1310    -0.2720    -0.5710 ca         1 IO2      -0.112000
      2 C2           5.6150     0.9340    -0.0690 ca         1 IO2      -0.120500
      3 C3           4.2900     0.9940     0.3980 ca         1 IO2      -0.087500
      4 C4           3.4730    -0.1540     0.3650 ca         1 IO2      -0.078300
      5 C5           3.9960    -1.3610    -0.1410 ca         1 IO2      -0.087500
      6 C6           5.3210    -1.4190    -0.6080 ca         1 IO2      -0.120500
      7 C7           2.0380    -0.0910     0.8730 c3         1 IO2       0.212900
      8 O8           1.1780     0.2640    -0.2240 os         1 IO2      -0.355100
      9 C9          -0.1860     0.3990    -0.0740 ca         1 IO2       0.090100
     10 C10         -0.9410     0.7490    -1.2050 ca         1 IO2      -0.170000
     11 C11         -2.3350     0.9010    -1.1130 ca         1 IO2      -0.081000
     12 C12         -2.9920     0.7060     0.1180 ca         1 IO2      -0.014300
     13 C13         -2.2350     0.3540     1.2530 ca         1 IO2      -0.081000
     14 C14         -0.8400     0.2010     1.1620 ca         1 IO2      -0.170000
     15 C15         -4.5060     0.8740     0.2210 c3         1 IO2      -0.186100
     16 C16         -5.1950    -0.4710    -0.0590 c          1 IO2       0.723000
     17 O17         -5.4460    -0.7580    -1.2210 o          1 IO2      -0.727500
     18 O18         -5.3580    -1.2400     0.8760 o          1 IO2      -0.727500
     19 H1           7.1560    -0.3180    -0.9320 ha         1 IO2       0.103000
     20 H2           6.2410     1.8240    -0.0410 ha         1 IO2       0.106000
     21 H3           3.8970     1.9320     0.7830 ha         1 IO2       0.116500
     22 H5           3.3740    -2.2530    -0.1750 ha         1 IO2       0.116500
     23 H6           5.7190    -2.3540    -0.9980 ha         1 IO2       0.106000
     24 H7           1.7540    -1.0670     1.2870 h1         1 IO2       0.035700
     25 H7A          1.9680     0.6550     1.6760 h1         1 IO2       0.035700
     26 H10         -0.4430     0.9020    -2.1590 ha         1 IO2       0.099000
     27 H11         -2.9060     1.1700    -1.9980 ha         1 IO2       0.107500
     28 H13         -2.7300     0.1970     2.2080 ha         1 IO2       0.107500
     29 H14         -0.2880    -0.0710     2.0570 ha         1 IO2       0.099000
     30 H15         -4.7240     1.2040     1.2430 hc         1 IO2       0.030200
     31 H15A        -4.8000     1.6120    -0.5350 hc         1 IO2       0.030200
@<TRIPOS>BOND
     1     1     2 ar  
     2     1     6 ar  
     3     1    19 1   
     4     2     3 ar  
     5     2    20 1   
     6     3     4 ar  
     7     3    21 1   
     8     4     5 ar  
     9     4     7 1   
    10     5     6 ar  
    11     5    22 1   
    12     6    23 1   
    13     7     8 1   
    14     7    24 1   
    15     7    25 1   
    16     8     9 1   
    17     9    10 ar  
    18     9    14 ar  
    19    10    11 ar  
    20    10    26 1   
    21    11    12 ar  
    22    11    27 1   
    23    12    13 ar  
    24    12    15 1   
    25    13    14 ar  
    26    13    28 1   
    27    14    29 1   
    28    15    16 1   
    29    15    30 1   
    30    15    31 1   
    31    16    17 1   
    32    16    18 1   
@<TRIPOS>SUBSTRUCTURE
     1 IO2         1 TEMP              0 ****  ****    0 ROOT
