@<TRIPOS>MOLECULE
IO2
   31    32     1     0     0
SMALL
bcc


@<TRIPOS>ATOM
      1 C1           6.0670    -0.2650    -0.5230 ca         1 IO2      -0.130000
      2 C2           5.4170     0.9530    -0.3560 ca         1 IO2      -0.138500
      3 C3           4.1090     0.9850     0.1040 ca         1 IO2      -0.105500
      4 C4           3.4340    -0.1970     0.4010 ca         1 IO2      -0.078300
      5 C5           4.0910    -1.4110     0.2300 ca         1 IO2      -0.105500
      6 C6           5.4030    -1.4470    -0.2280 ca         1 IO2      -0.138500
      7 C7           2.0110    -0.1550     0.8700 c3         1 IO2       0.189700
      8 O8           1.2060     0.1900    -0.2460 os         1 IO2      -0.331900
      9 C9          -0.1260     0.3410    -0.0580 ca         1 IO2       0.090100
     10 C10         -0.8620     0.7690    -1.1640 ca         1 IO2      -0.188000
     11 C11         -2.2290     0.9460    -1.0640 ca         1 IO2      -0.099000
     12 C12         -2.9160     0.7080     0.1270 ca         1 IO2      -0.014300
     13 C13         -2.1660     0.2870     1.2160 ca         1 IO2      -0.099000
     14 C14         -0.7880     0.1010     1.1410 ca         1 IO2      -0.188000
     15 C15         -4.3980     0.8840     0.2150 c3         1 IO2      -0.186100
     16 C16         -5.2260    -0.3350    -0.2640 c          1 IO2       0.933600
     17 O17         -6.4620    -0.1670    -0.2720 o          1 IO2      -0.832800
     18 O18         -4.6080    -1.3650    -0.5880 o          1 IO2      -0.832800
     19 H1           7.0890    -0.2910    -0.8800 ha         1 IO2       0.121000
     20 H2           5.9320     1.8780    -0.5810 ha         1 IO2       0.124000
     21 H3           3.6120     1.9380     0.2400 ha         1 IO2       0.134500
     22 H5           3.5760    -2.3370     0.4570 ha         1 IO2       0.134500
     23 H6           5.9020    -2.3980    -0.3560 ha         1 IO2       0.124000
     24 H7           1.7160    -1.1290     1.2750 h1         1 IO2       0.035700
     25 H7A          1.8890     0.5860     1.6680 h1         1 IO2       0.035700
     26 H10         -0.3520     0.9660    -2.0990 ha         1 IO2       0.117000
     27 H11         -2.7750     1.2850    -1.9370 ha         1 IO2       0.125500
     28 H13         -2.6600     0.0960     2.1620 ha         1 IO2       0.125500
     29 H14         -0.2600    -0.2290     2.0260 ha         1 IO2       0.117000
     30 H15         -4.6870     1.1010     1.2490 hc         1 IO2       0.030200
     31 H15A        -4.7120     1.7570    -0.3660 hc         1 IO2       0.030200
@<TRIPOS>BOND
     1     1     2 ar  
     2     1     6 ar  
     3     1    19 1   
     4     2     3 ar  
     5     2    20 1   
     6     3     4 ar  
     7     3    21 1   
     8     4     5 ar  
     9     4     7 1   
    10     5     6 ar  
    11     5    22 1   
    12     6    23 1   
    13     7     8 1   
    14     7    24 1   
    15     7    25 1   
    16     8     9 1   
    17     9    10 ar  
    18     9    14 ar  
    19    10    11 ar  
    20    10    26 1   
    21    11    12 ar  
    22    11    27 1   
    23    12    13 ar  
    24    12    15 1   
    25    13    14 ar  
    26    13    28 1   
    27    14    29 1   
    28    15    16 1   
    29    15    30 1   
    30    15    31 1   
    31    16    17 1   
    32    16    18 1   
@<TRIPOS>SUBSTRUCTURE
     1 IO2         1 TEMP              0 ****  ****    0 ROOT
