@<TRIPOS>MOLECULE
IO3
   27    27     1     0     0
SMALL
bcc


@<TRIPOS>ATOM
      1 I1           1.1040     3.1380    -0.6190 i          1 IO3      -0.199900
      2 I2          -4.1590     0.5010     0.2210 i          1 IO3      -0.189900
      3 I3           0.6420    -3.0040    -0.5850 i          1 IO3      -0.157900
      4 O1          -2.3610    -1.9990    -0.0730 oh         1 IO3      -0.489100
      5 O2           3.4760    -1.9690     1.4280 o          1 IO3      -0.832300
      6 O3           1.8420    -0.8350     2.4320 o          1 IO3      -0.832300
      7 C1           0.6830     0.0730    -0.4910 ca         1 IO3       0.102700
      8 C2           0.0480     1.3170    -0.4090 ca         1 IO3       0.020900
      9 C3          -1.3170     1.4420    -0.2070 ca         1 IO3      -0.030000
     10 C4          -2.0940     0.3090    -0.0870 ca         1 IO3      -0.004100
     11 C5          -1.5300    -0.9630    -0.1810 ca         1 IO3       0.211100
     12 C6          -0.1460    -1.0510    -0.3870 ca         1 IO3      -0.010100
     13 C8           2.9730     0.2150     0.6180 c3         1 IO3      -0.190700
     14 C9           2.7500    -0.9680     1.5870 c          1 IO3       0.921600
     15 C10          4.4410     0.4400     0.2750 c3         1 IO3      -0.043400
     16 C11          5.2980     0.7720     1.4890 c3         1 IO3      -0.077100
     17 H1          -1.9030    -2.8500    -0.0860 ho         1 IO3       0.446000
     18 H3          -1.7770     2.4180    -0.1440 ha         1 IO3       0.145000
     19 H4           2.4580    -0.9800    -1.1010 hc         1 IO3       0.049200
     20 H5           2.4730     0.7230    -1.4230 hc         1 IO3       0.049200
     21 H6           2.5920     1.1210     1.0980 hc         1 IO3       0.042700
     22 H7           4.8370    -0.4490    -0.2230 hc         1 IO3       0.018200
     23 H8           4.5160     1.2590    -0.4480 hc         1 IO3       0.018200
     24 H9           4.9330     1.6660     1.9990 hc         1 IO3       0.023033
     25 H10          5.2990    -0.0460     2.2090 hc         1 IO3       0.023033
     26 H11          6.3340     0.9600     1.2020 hc         1 IO3       0.023033
     27 C7           2.1720    -0.0170    -0.6780 c3         1 IO3      -0.039100
@<TRIPOS>BOND
     1     1     8 1   
     2     2    10 1   
     3     3    12 1   
     4     4    11 1   
     5     4    17 1   
     6     5    14 1   
     7     6    14 1   
     8     7     8 ar  
     9     7    12 ar  
    10     7    27 1   
    11     8     9 ar  
    12     9    10 ar  
    13     9    18 1   
    14    10    11 ar  
    15    11    12 ar  
    16    13    14 1   
    17    13    15 1   
    18    13    21 1   
    19    13    27 1   
    20    15    16 1   
    21    15    22 1   
    22    15    23 1   
    23    16    24 1   
    24    16    25 1   
    25    16    26 1   
    26    19    27 1   
    27    20    27 1   
@<TRIPOS>SUBSTRUCTURE
     1 IO3         1 TEMP              0 ****  ****    0 ROOT
