@<TRIPOS>MOLECULE
IO3
   27    27     1     0     0
SMALL
No Charge or Current Charge


@<TRIPOS>ATOM
      1 I1           1.2040     3.1810    -0.6240 i          1 IO3      -0.337000
      2 I2          -4.2960     0.6360     0.2200 i          1 IO3      -0.327000
      3 I3           0.5480    -3.1530    -0.5730 i          1 IO3      -0.295000
      4 O1          -2.4100    -2.0480    -0.0900 oh         1 IO3      -0.528100
      5 O2           3.3360    -2.0990     1.3090 o          1 IO3      -0.727000
      6 O3           2.2330    -0.8150     2.6360 o          1 IO3      -0.727000
      7 C1           0.6390     0.0420    -0.4990 ca         1 IO3       0.102700
      8 C2           0.0480     1.3320    -0.4160 ca         1 IO3       0.158000
      9 C3          -1.3330     1.4750    -0.2130 ca         1 IO3      -0.012000
     10 C4          -2.1550     0.3480    -0.0940 ca         1 IO3       0.133000
     11 C5          -1.5980    -0.9420    -0.1900 ca         1 IO3       0.211100
     12 C6          -0.2080    -1.0970    -0.3960 ca         1 IO3       0.127000
     13 C8           2.9810     0.1540     0.5980 c3         1 IO3      -0.190700
     14 C9           2.8350    -1.0220     1.5940 c          1 IO3       0.711000
     15 C10          4.4680     0.4810     0.2870 c3         1 IO3      -0.043400
     16 C11          5.3020     0.8470     1.5310 c3         1 IO3      -0.077100
     17 H1          -1.8490    -2.8500    -0.1830 ho         1 IO3       0.485000
     18 H3          -1.7690     2.4670    -0.1500 ha         1 IO3       0.127000
     19 H4           2.4340    -1.0620    -1.1300 hc         1 IO3       0.049200
     20 H5           2.4740     0.6250    -1.4690 hc         1 IO3       0.049200
     21 H6           2.5500     1.0380     1.0820 hc         1 IO3       0.042700
     22 H7           4.9360    -0.3710    -0.2210 hc         1 IO3       0.018200
     23 H8           4.5100     1.3250    -0.4130 hc         1 IO3       0.018200
     24 H9           4.8620     1.7050     2.0550 hc         1 IO3       0.023033
     25 H10          5.3600     0.0050     2.2310 hc         1 IO3       0.023033
     26 H11          6.3240     1.1140     1.2370 hc         1 IO3       0.023033
     27 C7           2.1580    -0.0930    -0.7040 c3         1 IO3      -0.039100
@<TRIPOS>BOND
     1     1     8 1   
     2     2    10 1   
     3     3    12 1   
     4     4    11 1   
     5     4    17 1   
     6     5    14 1   
     7     6    14 1   
     8     7     8 ar  
     9     7    12 ar  
    10     7    27 1   
    11     8     9 ar  
    12     9    10 ar  
    13     9    18 1   
    14    10    11 ar  
    15    11    12 ar  
    16    13    14 1   
    17    13    15 1   
    18    13    21 1   
    19    13    27 1   
    20    15    16 1   
    21    15    22 1   
    22    15    23 1   
    23    16    24 1   
    24    16    25 1   
    25    16    26 1   
    26    19    27 1   
    27    20    27 1   
@<TRIPOS>SUBSTRUCTURE
     1 IO3         1 TEMP              0 ****  ****    0 ROOT
