@<TRIPOS>MOLECULE
IO4
   38    41     1     0     0
SMALL
bcc


@<TRIPOS>ATOM
      1 C10         13.3710    36.7950   -13.1560 c          1 IO4       0.705700
      2 C13          8.9740    35.5570    -7.6420 ca         1 IO4      -0.110900
      3 C15          8.7900    33.6900    -6.1200 ca         1 IO4      -0.135000
      4 C16          7.7370    34.3150    -5.4650 ca         1 IO4      -0.115000
      5 C17          7.3020    35.5600    -5.8980 ca         1 IO4      -0.135000
      6 C18          7.9150    36.1770    -6.9780 ca         1 IO4      -0.099500
      7 C19         14.9750    37.8790   -14.7010 ca         1 IO4       0.118600
      8 C20         15.4720    39.1270   -15.0970 ca         1 IO4      -0.313300
      9 C21         16.4580    39.1800   -16.0550 ca         1 IO4       0.440200
     10 C23         16.5000    36.9460   -16.2540 ca         1 IO4       0.529300
     11 C24         15.5110    36.7430   -15.3040 ca         1 IO4      -0.263300
     12 C1          12.2710    37.1330   -12.2140 cc         1 IO4      -0.226600
     13 C2          11.5050    38.3340   -12.2750 cc         1 IO4      -0.098000
     14 C3          10.4980    38.5590   -11.3890 cd         1 IO4      -0.115000
     15 C4          11.9750    36.2000   -11.2640 cd         1 IO4       0.038700
     16 N5          10.9810    36.4430   -10.3840 na         1 IO4       0.211000
     17 C6          10.2180    37.5950   -10.3960 cd         1 IO4      -0.035300
     18 C7           9.3230    37.4560    -9.3540 cc         1 IO4      -0.324600
     19 C8           9.6230    36.2070    -8.7840 cc         1 IO4       0.448200
     20 N9          10.6270    35.6040    -9.4150 nd         1 IO4      -0.572100
     21 O11         13.7020    35.6440   -13.3640 o          1 IO4      -0.565100
     22 N12         13.9760    37.8700   -13.7430 ns         1 IO4      -0.468100
     23 C14          9.4040    34.3050    -7.1990 ca         1 IO4      -0.099500
     24 N22         16.9800    38.1010   -16.6400 nb         1 IO4      -0.674000
     25 CL25        17.1840    35.5410   -17.0130 cl         1 IO4      -0.166000
     26 H1           9.1360    32.7190    -5.7900 ha         1 IO4       0.133000
     27 H2           7.2580    33.8340    -4.6210 ha         1 IO4       0.132000
     28 H3           6.4820    36.0550    -5.3940 ha         1 IO4       0.133000
     29 H4           7.5610    37.1480    -7.2980 ha         1 IO4       0.139500
     30 H5          15.0910    40.0420   -14.6620 ha         1 IO4       0.141000
     31 H6          16.8520    40.1380   -16.3730 h4         1 IO4       0.026100
     32 H7          15.1880    35.7470   -15.0570 ha         1 IO4       0.189000
     33 H8          11.6880    39.0680   -13.0480 ha         1 IO4       0.139000
     34 H9           9.9010    39.4590   -11.4350 ha         1 IO4       0.156000
     35 H10         12.4930    35.2580   -11.1530 h4         1 IO4       0.200000
     36 H11          8.5680    38.1660    -9.0610 ha         1 IO4       0.172000
     37 H12         13.7140    38.7850   -13.4090 hn         1 IO4       0.325500
     38 H13         10.2230    33.8080    -7.7020 ha         1 IO4       0.139500
@<TRIPOS>BOND
     1     1    12 1   
     2     1    21 2   
     3     1    22 1   
     4     2     6 ar  
     5     2    19 1   
     6     2    23 ar  
     7     3     4 ar  
     8     3    23 ar  
     9     3    26 1   
    10     4     5 ar  
    11     4    27 1   
    12     5     6 ar  
    13     5    28 1   
    14     6    29 1   
    15     7     8 ar  
    16     7    11 ar  
    17     7    22 1   
    18     8     9 ar  
    19     8    30 1   
    20     9    24 ar  
    21     9    31 1   
    22    10    11 ar  
    23    10    24 ar  
    24    10    25 1   
    25    11    32 1   
    26    12    13 1   
    27    12    15 2   
    28    13    14 2   
    29    13    33 1   
    30    14    17 1   
    31    14    34 1   
    32    15    16 1   
    33    15    35 1   
    34    16    17 1   
    35    16    20 1   
    36    17    18 2   
    37    18    19 1   
    38    18    36 1   
    39    19    20 2   
    40    22    37 1   
    41    23    38 1   
@<TRIPOS>SUBSTRUCTURE
     1 IO4         1 TEMP              0 ****  ****    0 ROOT
