@<TRIPOS>MOLECULE
IO4
   38    41     1     0     0
SMALL
No Charge or Current Charge


@<TRIPOS>ATOM
      1 C10         13.6130    36.7170   -13.0080 c          1 IO4       0.638700
      2 C13          8.9040    35.5020    -7.6290 ca         1 IO4      -0.110900
      3 C15          8.2930    33.6160    -6.1800 ca         1 IO4      -0.117000
      4 C16          7.3320    34.4070    -5.5340 ca         1 IO4      -0.097000
      5 C17          7.1520    35.7410    -5.9280 ca         1 IO4      -0.117000
      6 C18          7.9290    36.2860    -6.9650 ca         1 IO4      -0.081500
      7 C19         14.9180    37.9130   -14.8710 ca         1 IO4       0.026000
      8 C20         15.0300    39.1510   -15.5240 ca         1 IO4      -0.230000
      9 C21         15.9660    39.3140   -16.5590 ca         1 IO4       0.374900
     10 C23         16.6770    37.1310   -16.3450 ca         1 IO4       0.464000
     11 C24         15.7720    36.8790   -15.3030 ca         1 IO4      -0.180000
     12 C1          12.5300    37.0130   -12.0200 cc         1 IO4      -0.226600
     13 C2          11.8950    38.3310   -11.9390 cc         1 IO4      -0.080000
     14 C3          10.8970    38.5910   -11.0230 cd         1 IO4      -0.097000
     15 C4          12.1500    35.9590   -11.1720 cd         1 IO4       0.006000
     16 N5          11.1390    36.2510   -10.2570 na         1 IO4       0.312400
     17 C6          10.5590    37.4900   -10.1970 cd         1 IO4      -0.086000
     18 C7           9.6380    37.3970    -9.2080 cc         1 IO4      -0.374600
     19 C8           9.7280    36.0600    -8.7200 cc         1 IO4       0.448200
     20 N9          10.6500    35.3330    -9.3540 nd         1 IO4      -0.572100
     21 O11         14.1470    35.6160   -13.0790 o          1 IO4      -0.565100
     22 N12         13.9610    37.7830   -13.8280 ns         1 IO4      -0.142000
     23 C14          9.0720    34.1570    -7.2180 ca         1 IO4      -0.081500
     24 N22         16.7830    38.3220   -16.9710 nb         1 IO4      -0.674000
     25 Cl25        17.7560    35.8620   -16.9060 cl         1 IO4      -0.166000
     26 H1           8.4350    32.5810    -5.8780 ha         1 IO4       0.115000
     27 H2           6.7290    33.9880    -4.7310 ha         1 IO4       0.114000
     28 H3           6.4070    36.3580    -5.4290 ha         1 IO4       0.115000
     29 H4           7.7610    37.3220    -7.2420 ha         1 IO4       0.121500
     30 H5          14.4010    39.9900   -15.2390 ha         1 IO4       0.123000
     31 H6          16.0630    40.2690   -17.0730 h4         1 IO4       0.026100
     32 H7          15.7590    35.8900   -14.8610 ha         1 IO4       0.171000
     33 H8          12.1990    39.1350   -12.6010 ha         1 IO4       0.121000
     34 H9          10.4120    39.5580   -10.9430 ha         1 IO4       0.138000
     35 H10         12.5600    34.9570   -11.1590 h4         1 IO4       0.182000
     36 H11          8.9690    38.1730    -8.8560 ha         1 IO4       0.222000
     37 H12         13.4360    38.6270   -13.6540 hn         1 IO4       0.159000
     38 H13          9.8090    33.5190    -7.7000 ha         1 IO4       0.121500
@<TRIPOS>BOND
     1     1    12 1   
     2     1    21 2   
     3     1    22 1   
     4     2     6 ar  
     5     2    19 1   
     6     2    23 ar  
     7     3     4 ar  
     8     3    23 ar  
     9     3    26 1   
    10     4     5 ar  
    11     4    27 1   
    12     5     6 ar  
    13     5    28 1   
    14     6    29 1   
    15     7     8 ar  
    16     7    11 ar  
    17     7    22 1   
    18     8     9 ar  
    19     8    30 1   
    20     9    24 ar  
    21     9    31 1   
    22    10    11 ar  
    23    10    24 ar  
    24    10    25 1   
    25    11    32 1   
    26    12    13 1   
    27    12    15 2   
    28    13    14 2   
    29    13    33 1   
    30    14    17 1   
    31    14    34 1   
    32    15    16 1   
    33    15    35 1   
    34    16    17 1   
    35    16    20 1   
    36    17    18 2   
    37    18    19 1   
    38    18    36 1   
    39    19    20 2   
    40    22    37 1   
    41    23    38 1   
@<TRIPOS>SUBSTRUCTURE
     1 IO4         1 TEMP              0 ****  ****    0 ROOT
