@<TRIPOS>MOLECULE
IO5
   61    63     1     0     0
SMALL
No Charge or Current Charge


@<TRIPOS>ATOM
      1 C01        -43.4820    -8.1490    32.6580 c3         1 IO5      -0.085100
      2 C02        -44.4530    -7.8850    31.4900 c3         1 IO5      -0.053100
      3 C03        -44.4430    -9.0240    30.4500 ca         1 IO5       0.097700
      4 C04        -45.3140   -10.1340    30.5620 ca         1 IO5      -0.182000
      5 C05        -46.2180   -10.2680    31.6670 cg         1 IO5       0.345000
      6 C07        -45.2570   -11.1420    29.5850 ca         1 IO5       0.707900
      7 C09        -47.5210   -12.1390    29.2910 c3         1 IO5       0.223800
      8 C10        -48.2660   -13.4090    28.8320 c3         1 IO5      -0.096400
      9 C11        -47.7340   -14.0290    27.5240 c3         1 IO5       0.177800
     10 C13        -45.3570   -14.3490    28.2260 c3         1 IO5       0.148800
     11 C14        -45.4610   -13.6320    29.6020 c3         1 IO5       0.225800
     12 C15        -46.3670   -15.7530    26.4350 c3         1 IO5       0.164800
     13 C16        -45.3940   -16.9610    26.5550 c3         1 IO5       0.160600
     14 C19        -43.5570   -10.0920    28.4520 ca         1 IO5       0.566300
     15 C21        -42.1640   -11.9620    26.7710 c3         1 IO5       0.004600
     16 C22        -41.2390   -12.1790    25.5750 ca         1 IO5      -0.092300
     17 C23        -41.7120   -12.8370    24.4220 ca         1 IO5      -0.092500
     18 C24        -40.8600   -13.0410    23.3220 ca         1 IO5      -0.109000
     19 C25        -39.5310   -12.5890    23.3670 ca         1 IO5      -0.098000
     20 C26        -39.0540   -11.9300    24.5130 ca         1 IO5      -0.109000
     21 C27        -39.9040   -11.7250    25.6130 ca         1 IO5      -0.092500
     22 C28        -41.6350   -12.6760    28.0390 c          1 IO5       0.624100
     23 C31        -43.5400    -9.0180    29.3600 ca         1 IO5      -0.147000
     24 C32        -42.5920    -7.9580    29.1700 cg         1 IO5       0.340000
     25 N06        -46.9490   -10.3600    32.5720 n1         1 IO5      -0.476000
     26 N08        -46.0760   -12.2780    29.5790 nh         1 IO5      -0.769300
     27 N12        -46.6050   -14.9790    27.6910 n3         1 IO5      -0.734600
     28 N18        -44.4040   -11.1260    28.5600 nb         1 IO5      -0.804000
     29 N29        -41.7770   -14.0220    28.0620 nt         1 IO5      -0.607000
     30 N33        -41.8270    -7.0890    29.0290 n1         1 IO5      -0.453000
     31 O17        -45.3680   -17.7150    25.3310 oh         1 IO5      -0.664000
     32 O30        -41.0970   -12.1060    28.9750 o          1 IO5      -0.577100
     33 S20        -42.4460   -10.1430    27.0410 ss         1 IO5      -0.246300
     34 H1         -43.5140    -7.3220    33.3780 hc         1 IO5       0.044367
     35 H2         -43.7500    -9.0730    33.1850 hc         1 IO5       0.044367
     36 H3         -42.4520    -8.2470    32.2940 hc         1 IO5       0.044367
     37 H4         -44.1980    -6.9240    31.0280 hc         1 IO5       0.063200
     38 H5         -45.4590    -7.7260    31.8950 hc         1 IO5       0.063200
     39 H6         -48.0340   -11.7670    30.1880 h1         1 IO5       0.059200
     40 H7         -47.6550   -11.3770    28.5110 h1         1 IO5       0.059200
     41 H8         -49.3140   -13.1300    28.6700 hc         1 IO5       0.060700
     42 H9         -48.2730   -14.1600    29.6300 hc         1 IO5       0.060700
     43 H10        -47.4630   -13.2250    26.8250 h1         1 IO5       0.037700
     44 H11        -48.5780   -14.5660    27.0700 h1         1 IO5       0.037700
     45 H12        -44.5950   -15.1270    28.3580 h1         1 IO5       0.037700
     46 H13        -44.9550   -13.6380    27.4940 h1         1 IO5       0.037700
     47 H14        -45.9990   -14.2820    30.3040 h1         1 IO5       0.069200
     48 H15        -44.4410   -13.5470    30.0020 h1         1 IO5       0.069200
     49 H16        -45.9880   -15.0820    25.6520 h1         1 IO5       0.046700
     50 H17        -47.3250   -16.1520    26.0730 h1         1 IO5       0.046700
     51 H18        -45.7230   -17.6020    27.3830 h1         1 IO5       0.022700
     52 H19        -44.3840   -16.6000    26.7890 h1         1 IO5       0.022700
     53 H20        -43.1390   -12.4110    26.5490 h1         1 IO5       0.095700
     54 H21        -42.7400   -13.1910    24.3740 ha         1 IO5       0.123500
     55 H22        -41.2310   -13.5500    22.4350 ha         1 IO5       0.118500
     56 H23        -38.8720   -12.7470    22.5160 ha         1 IO5       0.116000
     57 H24        -38.0250   -11.5780    24.5490 ha         1 IO5       0.118500
     58 H25        -39.5250   -11.2130    26.4950 ha         1 IO5       0.123500
     59 H27        -41.4250   -14.5390    28.8540 hn         1 IO5       0.314500
     60 H28        -42.1760   -14.5030    27.2710 hn         1 IO5       0.314500
     61 H29        -44.7630   -18.4760    25.4770 ho         1 IO5       0.447000
@<TRIPOS>BOND
     1     1     2 1   
     2     1    34 1   
     3     1    35 1   
     4     1    36 1   
     5     2     3 1   
     6     2    37 1   
     7     2    38 1   
     8     3     4 ar  
     9     3    23 ar  
    10     4     5 1   
    11     4     6 ar  
    12     5    25 3   
    13     6    26 1   
    14     6    28 ar  
    15     7     8 1   
    16     7    26 1   
    17     7    39 1   
    18     7    40 1   
    19     8     9 1   
    20     8    41 1   
    21     8    42 1   
    22     9    27 1   
    23     9    43 1   
    24     9    44 1   
    25    10    11 1   
    26    10    27 1   
    27    10    45 1   
    28    10    46 1   
    29    11    26 1   
    30    11    47 1   
    31    11    48 1   
    32    12    13 1   
    33    12    27 1   
    34    12    49 1   
    35    12    50 1   
    36    13    31 1   
    37    13    51 1   
    38    13    52 1   
    39    14    23 ar  
    40    14    28 ar  
    41    14    33 1   
    42    15    16 1   
    43    15    22 1   
    44    15    33 1   
    45    15    53 1   
    46    16    17 ar  
    47    16    21 ar  
    48    17    18 ar  
    49    17    54 1   
    50    18    19 ar  
    51    18    55 1   
    52    19    20 ar  
    53    19    56 1   
    54    20    21 ar  
    55    20    57 1   
    56    21    58 1   
    57    22    29 1   
    58    22    32 2   
    59    23    24 1   
    60    24    30 3   
    61    29    59 1   
    62    29    60 1   
    63    31    61 1   
@<TRIPOS>SUBSTRUCTURE
     1 IO5         1 TEMP              0 ****  ****    0 ROOT
