@<TRIPOS>MOLECULE
IO5
   61    63     1     0     0
SMALL
bcc


@<TRIPOS>ATOM
      1 C01        -44.1700    -7.5740    31.9600 c3         1 IO5      -0.085100
      2 C02        -45.0540    -7.8040    30.7330 c3         1 IO5      -0.053100
      3 C03        -44.7110    -9.0920    30.0470 ca         1 IO5       0.097700
      4 C04        -45.3450   -10.2890    30.3860 ca         1 IO5      -0.247300
      5 C05        -46.2170   -10.2720    31.5070 cg         1 IO5       0.255800
      6 C07        -44.9810   -11.4960    29.7130 ca         1 IO5       0.773200
      7 C09        -47.0310   -12.7190    30.2860 c3         1 IO5       0.223800
      8 C10        -47.8290   -13.8090    29.5810 c3         1 IO5      -0.096400
      9 C11        -47.6760   -13.8580    28.0620 c3         1 IO5       0.177800
     10 C13        -45.2830   -14.2140    27.9120 c3         1 IO5       0.148800
     11 C14        -45.0250   -13.8910    29.3780 c3         1 IO5       0.225800
     12 C15        -46.7250   -15.1120    26.2300 c3         1 IO5       0.164800
     13 C16        -46.0510   -16.4420    25.9280 c3         1 IO5       0.137400
     14 C19        -43.2930   -10.3960    28.6020 ca         1 IO5       0.631600
     15 C21        -41.8540   -12.2120    27.1000 c3         1 IO5      -0.043300
     16 C22        -40.9430   -12.3580    25.9060 ca         1 IO5      -0.092300
     17 C23        -41.4650   -12.7770    24.6860 ca         1 IO5      -0.110500
     18 C24        -40.6380   -12.9210    23.5810 ca         1 IO5      -0.127000
     19 C25        -39.2820   -12.6450    23.6860 ca         1 IO5      -0.116000
     20 C26        -38.7560   -12.2250    24.9020 ca         1 IO5      -0.127000
     21 C27        -39.5810   -12.0810    26.0070 ca         1 IO5      -0.110500
     22 C28        -41.3390   -13.0250    28.2920 c          1 IO5       0.691100
     23 C31        -43.6850    -9.1370    29.1040 ca         1 IO5      -0.212300
     24 C32        -42.9980    -7.9630    28.7060 cg         1 IO5       0.250800
     25 N06        -46.8780   -10.2200    32.4510 n1         1 IO5      -0.386800
     26 N08        -45.6420   -12.6550    29.8450 nh         1 IO5      -0.769300
     27 N12        -46.6040   -14.7410    27.6290 n3         1 IO5      -0.734600
     28 N18        -43.9130   -11.5040    28.9030 nb         1 IO5      -0.804000
     29 N29        -41.5710   -14.3390    28.1690 nt         1 IO5      -0.674000
     30 N33        -42.4260    -7.0170    28.3770 n1         1 IO5      -0.363800
     31 O17        -46.2570   -16.7250    24.5610 oh         1 IO5      -0.601800
     32 O30        -40.7470   -12.5210    29.2270 o          1 IO5      -0.577100
     33 S20        -41.9460   -10.4460    27.4880 ss         1 IO5      -0.198400
     34 H1         -44.4340    -6.6290    32.4320 hc         1 IO5       0.044367
     35 H2         -44.2970    -8.3650    32.6980 hc         1 IO5       0.044367
     36 H3         -43.1160    -7.5300    31.6880 hc         1 IO5       0.044367
     37 H4         -44.9310    -6.9770    30.0320 hc         1 IO5       0.063200
     38 H5         -46.1040    -7.8030    31.0260 hc         1 IO5       0.063200
     39 H6         -47.0970   -12.8670    31.3660 h1         1 IO5       0.059200
     40 H7         -47.5040   -11.7640    30.0530 h1         1 IO5       0.059200
     41 H8         -48.8740   -13.6090    29.8260 hc         1 IO5       0.060700
     42 H9         -47.6100   -14.7960    29.9920 hc         1 IO5       0.060700
     43 H10        -47.5690   -12.8350    27.6610 h1         1 IO5       0.037700
     44 H11        -48.6040   -14.2520    27.6470 h1         1 IO5       0.037700
     45 H12        -44.5420   -14.9620    27.6250 h1         1 IO5       0.037700
     46 H13        -45.0660   -13.3150    27.3110 h1         1 IO5       0.037700
     47 H14        -45.3720   -14.7050    30.0150 h1         1 IO5       0.069200
     48 H15        -43.9510   -13.8160    29.5270 h1         1 IO5       0.069200
     49 H16        -46.3240   -14.3350    25.5580 h1         1 IO5       0.046700
     50 H17        -47.7860   -15.2150    25.9890 h1         1 IO5       0.046700
     51 H18        -46.4900   -17.2100    26.5770 h1         1 IO5       0.022700
     52 H19        -44.9810   -16.4000    26.1650 h1         1 IO5       0.022700
     53 H20        -42.8580   -12.5500    26.8350 h1         1 IO5       0.095700
     54 H21        -42.5230   -12.9930    24.6000 ha         1 IO5       0.141500
     55 H22        -41.0540   -13.2500    22.6380 ha         1 IO5       0.136500
     56 H23        -38.6360   -12.7570    22.8250 ha         1 IO5       0.134000
     57 H24        -37.6990   -12.0080    24.9900 ha         1 IO5       0.136500
     58 H25        -39.1600   -11.7550    26.9510 ha         1 IO5       0.141500
     59 H27        -41.2230   -14.9820    28.8630 hn         1 IO5       0.314500
     60 H28        -42.0500   -14.7300    27.3750 hn         1 IO5       0.314500
     61 H29        -45.8290   -17.5620    24.3600 ho         1 IO5       0.408000
@<TRIPOS>BOND
     1     1     2 1   
     2     1    34 1   
     3     1    35 1   
     4     1    36 1   
     5     2     3 1   
     6     2    37 1   
     7     2    38 1   
     8     3     4 ar  
     9     3    23 ar  
    10     4     5 1   
    11     4     6 ar  
    12     5    25 3   
    13     6    26 1   
    14     6    28 ar  
    15     7     8 1   
    16     7    26 1   
    17     7    39 1   
    18     7    40 1   
    19     8     9 1   
    20     8    41 1   
    21     8    42 1   
    22     9    27 1   
    23     9    43 1   
    24     9    44 1   
    25    10    11 1   
    26    10    27 1   
    27    10    45 1   
    28    10    46 1   
    29    11    26 1   
    30    11    47 1   
    31    11    48 1   
    32    12    13 1   
    33    12    27 1   
    34    12    49 1   
    35    12    50 1   
    36    13    31 1   
    37    13    51 1   
    38    13    52 1   
    39    14    23 ar  
    40    14    28 ar  
    41    14    33 1   
    42    15    16 1   
    43    15    22 1   
    44    15    33 1   
    45    15    53 1   
    46    16    17 ar  
    47    16    21 ar  
    48    17    18 ar  
    49    17    54 1   
    50    18    19 ar  
    51    18    55 1   
    52    19    20 ar  
    53    19    56 1   
    54    20    21 ar  
    55    20    57 1   
    56    21    58 1   
    57    22    29 1   
    58    22    32 2   
    59    23    24 1   
    60    24    30 3   
    61    29    59 1   
    62    29    60 1   
    63    31    61 1   
@<TRIPOS>SUBSTRUCTURE
     1 IO5         1 TEMP              0 ****  ****    0 ROOT
