@<TRIPOS>MOLECULE
IO6
   37    38     1     0     0
SMALL
No Charge or Current Charge


@<TRIPOS>ATOM
      1 C7         -42.2480    21.2450    -2.3640 ca         1 IO6      -0.266500
      2 C8         -43.4080    20.6240    -2.8950 ca         1 IO6       0.032000
      3 O14        -39.5720    17.7470    -0.7360 o          1 IO6      -0.517000
      4 S13        -39.8390    17.9250    -2.1680 sy         1 IO6       1.203300
      5 O15        -38.7570    18.1860    -3.1240 o          1 IO6      -0.517000
      6 C11        -41.1280    19.1160    -2.3870 ca         1 IO6      -0.279500
      7 C10        -42.2600    18.4890    -2.9050 ca         1 IO6      -0.047600
      8 C9         -43.4170    19.2400    -3.1680 ca         1 IO6      -0.073000
      9 C12        -41.0850    20.4870    -2.1050 ca         1 IO6       0.094000
     10 S1         -42.2510    23.0010    -2.0210 sy         1 IO6       1.182600
     11 O6         -41.1880    23.3550    -1.0850 o          1 IO6      -0.543500
     12 N7         -41.7460    23.6490    -3.4230 n8         1 IO6      -1.065100
     13 O5         -43.6130    23.5100    -1.8880 o          1 IO6      -0.543500
     14 N16        -40.7860    16.6170    -2.7350 n          1 IO6      -0.491200
     15 C17        -42.0670    17.0080    -3.1300 c          1 IO6       0.581600
     16 O18        -42.9080    16.2520    -3.5940 o          1 IO6      -0.475000
     17 C19        -40.2500    15.2550    -2.8950 c3         1 IO6       0.117000
     18 C20        -40.3950    14.4040    -1.6180 c3         1 IO6      -0.102400
     19 C21        -39.8550    12.9670    -1.7880 c3         1 IO6      -0.072400
     20 C29        -40.0020    12.1120    -0.5100 c3         1 IO6      -0.075400
     21 C30        -39.4630    10.6780    -0.6780 c3         1 IO6      -0.089100
     22 H1         -44.3030    21.2090    -3.0990 ha         1 IO6       0.136000
     23 H2         -44.3070    18.7640    -3.5760 ha         1 IO6       0.146000
     24 H3         -40.1820    20.9470    -1.7010 ha         1 IO6       0.159000
     25 H4         -42.5040    24.3100    -3.5820 hn         1 IO6       0.499000
     26 H5         -41.0120    24.2590    -3.0700 hn         1 IO6       0.499000
     27 H6         -40.7710    14.7570    -3.7230 h1         1 IO6       0.064700
     28 H7         -39.1880    15.3160    -3.1700 h1         1 IO6       0.064700
     29 H8         -39.8640    14.8940    -0.7930 hc         1 IO6       0.058700
     30 H9         -41.4550    14.3610    -1.3380 hc         1 IO6       0.058700
     31 H10        -40.3880    12.4760    -2.6120 hc         1 IO6       0.039700
     32 H11        -38.7960    13.0110    -2.0720 hc         1 IO6       0.039700
     33 H12        -39.4680    12.5980     0.3160 hc         1 IO6       0.040700
     34 H13        -41.0600    12.0640    -0.2240 hc         1 IO6       0.040700
     35 H14        -39.5880    10.1110     0.2520 hc         1 IO6       0.033033
     36 H15        -40.0020    10.1520    -1.4760 hc         1 IO6       0.033033
     37 H16        -38.3960    10.6920    -0.9310 hc         1 IO6       0.033033
@<TRIPOS>BOND
     1     1     2 ar  
     2     1     9 ar  
     3     1    10 1   
     4     2     8 ar  
     5     2    22 1   
     6     3     4 2   
     7     4     5 2   
     8     4     6 1   
     9     4    14 1   
    10     6     7 ar  
    11     6     9 ar  
    12     7     8 ar  
    13     7    15 1   
    14     8    23 1   
    15     9    24 1   
    16    10    11 2   
    17    10    12 1   
    18    10    13 2   
    19    12    25 1   
    20    12    26 1   
    21    14    15 1   
    22    14    17 1   
    23    15    16 2   
    24    17    18 1   
    25    17    27 1   
    26    17    28 1   
    27    18    19 1   
    28    18    29 1   
    29    18    30 1   
    30    19    20 1   
    31    19    31 1   
    32    19    32 1   
    33    20    21 1   
    34    20    33 1   
    35    20    34 1   
    36    21    35 1   
    37    21    36 1   
    38    21    37 1   
@<TRIPOS>SUBSTRUCTURE
     1 IO6         1 TEMP              0 ****  ****    0 ROOT
