@<TRIPOS>MOLECULE
IO6
   37    38     1     0     0
SMALL
abcg2


@<TRIPOS>ATOM
      1 C7         -42.0410    21.1780    -2.3940 ca         1 IO6      -0.266500
      2 C8         -43.1700    20.5820    -2.9540 ca         1 IO6       0.032000
      3 O14        -39.3810    17.6970    -0.7530 o          1 IO6      -0.517000
      4 S13        -39.6320    17.9300    -2.1510 sy         1 IO6       1.203300
      5 O15        -38.4940    18.1860    -2.9940 o          1 IO6      -0.517000
      6 C11        -40.9240    19.1050    -2.4030 ca         1 IO6      -0.279500
      7 C10        -42.0320    18.4850    -2.9630 ca         1 IO6      -0.047600
      8 C9         -43.1710    19.2230    -3.2460 ca         1 IO6      -0.073000
      9 C12        -40.8880    20.4520    -2.1060 ca         1 IO6       0.094000
     10 S1         -42.0810    22.9060    -1.9440 sy         1 IO6       1.182600
     11 O6         -40.7090    23.3240    -1.7870 o          1 IO6      -0.543500
     12 N7         -42.7720    23.6230    -3.2300 n8         1 IO6      -1.065100
     13 O5         -42.9990    23.0450    -0.8380 o          1 IO6      -0.543500
     14 N16        -40.5530    16.6780    -2.7920 n          1 IO6      -0.491200
     15 C17        -41.8250    17.0290    -3.1980 c          1 IO6       0.581600
     16 O18        -42.6270    16.2540    -3.6750 o          1 IO6      -0.475000
     17 C19        -40.0290    15.3090    -2.8530 c3         1 IO6       0.117000
     18 C20        -40.4350    14.4670    -1.6490 c3         1 IO6      -0.102400
     19 C21        -39.9000    13.0420    -1.7530 c3         1 IO6      -0.072400
     20 C29        -40.2790    12.1760    -0.5530 c3         1 IO6      -0.075400
     21 C30        -39.7380    10.7520    -0.6530 c3         1 IO6      -0.089100
     22 H1         -44.0430    21.1810    -3.1710 ha         1 IO6       0.136000
     23 H2         -44.0370    18.7480    -3.6870 ha         1 IO6       0.146000
     24 H3         -40.0180    20.9270    -1.6770 ha         1 IO6       0.159000
     25 H4         -43.5390    24.2380    -2.9890 hn         1 IO6       0.499000
     26 H5         -42.1190    24.0050    -3.9050 hn         1 IO6       0.499000
     27 H6         -40.4050    14.8750    -3.7800 h1         1 IO6       0.064700
     28 H7         -38.9440    15.3770    -2.9370 h1         1 IO6       0.064700
     29 H8         -40.0600    14.9400    -0.7390 hc         1 IO6       0.058700
     30 H9         -41.5260    14.4510    -1.5780 hc         1 IO6       0.058700
     31 H10        -40.2780    12.5770    -2.6710 hc         1 IO6       0.039700
     32 H11        -38.8080    13.0700    -1.8470 hc         1 IO6       0.039700
     33 H12        -39.9050    12.6490     0.3610 hc         1 IO6       0.040700
     34 H13        -41.3700    12.1500    -0.4620 hc         1 IO6       0.040700
     35 H14        -40.0240    10.1560     0.2160 hc         1 IO6       0.033033
     36 H15        -40.1210    10.2500    -1.5450 hc         1 IO6       0.033033
     37 H16        -38.6470    10.7530    -0.7150 hc         1 IO6       0.033033
@<TRIPOS>BOND
     1     1     2 ar  
     2     1     9 ar  
     3     1    10 1   
     4     2     8 ar  
     5     2    22 1   
     6     3     4 2   
     7     4     5 2   
     8     4     6 1   
     9     4    14 1   
    10     6     7 ar  
    11     6     9 ar  
    12     7     8 ar  
    13     7    15 1   
    14     8    23 1   
    15     9    24 1   
    16    10    11 2   
    17    10    12 1   
    18    10    13 2   
    19    12    25 1   
    20    12    26 1   
    21    14    15 1   
    22    14    17 1   
    23    15    16 2   
    24    17    18 1   
    25    17    27 1   
    26    17    28 1   
    27    18    19 1   
    28    18    29 1   
    29    18    30 1   
    30    19    20 1   
    31    19    31 1   
    32    19    32 1   
    33    20    21 1   
    34    20    33 1   
    35    20    34 1   
    36    21    35 1   
    37    21    36 1   
    38    21    37 1   
@<TRIPOS>SUBSTRUCTURE
     1 IO6         1 TEMP              0 ****  ****    0 ROOT
