@<TRIPOS>MOLECULE
IO7
   40    42     1     0     0
SMALL
No Charge or Current Charge


@<TRIPOS>ATOM
      1 C10         92.8580    -2.8830    13.7270 cy         1 IO7      -0.118400
      2 C11         91.8070    -3.9080    13.1940 cy         1 IO7       0.101500
      3 C13         91.7530    -9.3500    14.2180 c          1 IO7       0.636700
      4 C18         93.4300   -11.2620    12.4110 cc         1 IO7      -0.219000
      5 C19         93.4830    -9.8610    12.5070 cc         1 IO7       0.384900
      6 C20         94.3560   -11.6320    11.4840 cd         1 IO7      -0.153000
      7 C22         97.4090   -10.5860    10.5670 c3         1 IO7       0.162300
      8 N1          90.0820    -8.3830    15.9250 na         1 IO7       0.177800
      9 C2          91.0970    -8.2150    14.9660 cc         1 IO7      -0.149600
     10 C3          91.2690    -6.8180    14.9440 cd         1 IO7      -0.251600
     11 C4          90.3450    -6.3030    15.8870 cd         1 IO7       0.259900
     12 N5          89.6250    -7.2180    16.4850 nc         1 IO7      -0.516800
     13 C6          92.1860    -5.9280    14.1520 c          1 IO7       0.661700
     14 N7          91.9350    -4.5700    14.5360 nj         1 IO7      -0.405800
     15 O8          92.9720    -6.4030    13.3440 o          1 IO7      -0.627100
     16 C9          93.3280    -4.0290    14.6790 cy         1 IO7       0.101500
     17 N14         92.7300    -9.0450    13.3130 ns         1 IO7      -0.462400
     18 O15         91.4270   -10.5110    14.4100 o          1 IO7      -0.604100
     19 N16         94.9280   -10.4250    11.0710 na         1 IO7       0.123800
     20 N17         94.3740    -9.3230    11.7080 nd         1 IO7      -0.547800
     21 F23         97.7210    -9.8110    11.6320 f          1 IO7      -0.111000
     22 F24         97.4850   -11.8760    10.9690 f          1 IO7      -0.111000
     23 H1          92.4220    -2.0200    14.2430 hc         1 IO7       0.063700
     24 H2          93.5960    -2.5300    12.9990 hc         1 IO7       0.063700
     25 H3          92.1410    -4.4650    12.3090 h1         1 IO7       0.060950
     26 H4          90.8150    -3.4780    13.0170 h1         1 IO7       0.060950
     27 H5          92.7770   -11.9240    12.9660 ha         1 IO7       0.168000
     28 H6          94.6490   -12.6020    11.1000 h4         1 IO7       0.154000
     29 H7          95.7560   -10.9130     9.2090 h1         1 IO7       0.082700
     30 H8          95.9690    -9.2270     9.6950 h1         1 IO7       0.082700
     31 H9          98.1440   -10.4160     9.7730 h2         1 IO7       0.060700
     32 H10         90.1710    -5.2700    16.1610 h4         1 IO7       0.043100
     33 H11         93.5590    -3.6950    15.6960 h1         1 IO7       0.060950
     34 H12         94.1580    -4.6240    14.2790 h1         1 IO7       0.060950
     35 H13         88.7100    -9.4540    17.1340 h1         1 IO7       0.070033
     36 H14         89.0140   -10.1580    15.5220 h1         1 IO7       0.070033
     37 H15         90.2530   -10.2910    16.8100 h1         1 IO7       0.070033
     38 H16         92.9240    -8.0590    13.2280 hn         1 IO7       0.391500
     39 C12         89.4770    -9.6500    16.3750 c3         1 IO7       0.070900
     40 C21         95.9880   -10.2610    10.0590 c3         1 IO7       0.031600
@<TRIPOS>BOND
     1     1     2 1   
     2     1    16 1   
     3     1    23 1   
     4     1    24 1   
     5     2    14 1   
     6     2    25 1   
     7     2    26 1   
     8     3     9 1   
     9     3    17 1   
    10     3    18 2   
    11     4     5 1   
    12     4     6 2   
    13     4    27 1   
    14     5    17 1   
    15     5    20 2   
    16     6    19 1   
    17     6    28 1   
    18     7    21 1   
    19     7    22 1   
    20     7    31 1   
    21     7    40 1   
    22     8     9 1   
    23     8    12 1   
    24     8    39 1   
    25     9    10 2   
    26    10    11 1   
    27    10    13 1   
    28    11    12 2   
    29    11    32 1   
    30    13    14 1   
    31    13    15 2   
    32    14    16 1   
    33    16    33 1   
    34    16    34 1   
    35    17    38 1   
    36    19    20 1   
    37    19    40 1   
    38    29    40 1   
    39    30    40 1   
    40    35    39 1   
    41    36    39 1   
    42    37    39 1   
@<TRIPOS>SUBSTRUCTURE
     1 IO7         1 TEMP              0 ****  ****    0 ROOT
