@<TRIPOS>MOLECULE
IO7
   40    42     1     0     0
SMALL
abcg2


@<TRIPOS>ATOM
      1 C10         92.1700    -2.8150    13.5540 cy         1 IO7      -0.118400
      2 C11         91.3480    -3.8650    14.3250 cy         1 IO7       0.101500
      3 C13         91.6830    -9.2100    13.8820 c          1 IO7       0.636700
      4 C18         93.1280   -11.1200    11.9260 cc         1 IO7      -0.219000
      5 C19         93.5380    -9.8870    12.4730 cc         1 IO7       0.384900
      6 C20         94.1380   -11.4380    11.0510 cd         1 IO7      -0.153000
      7 C22         97.4620   -10.8860    11.1850 c3         1 IO7       0.162300
      8 N1          90.2430    -8.4000    15.7150 na         1 IO7       0.177800
      9 C2          91.2530    -8.1630    14.8500 cc         1 IO7      -0.149600
     10 C3          91.6270    -6.8330    15.0520 cd         1 IO7      -0.251600
     11 C4          90.7660    -6.3860    16.0650 cd         1 IO7       0.259900
     12 N5          89.9540    -7.3420    16.4570 nc         1 IO7      -0.516800
     13 C6          92.7070    -6.0580    14.4140 c          1 IO7       0.661700
     14 N7          92.5110    -4.7520    14.2750 nj         1 IO7      -0.405800
     15 O8          93.7660    -6.5790    14.0420 o          1 IO7      -0.627100
     16 C9          93.3580    -3.7970    13.5700 cy         1 IO7       0.101500
     17 N14         92.9390    -9.0720    13.4230 ns         1 IO7      -0.462400
     18 O15         90.9240   -10.1100    13.5610 o          1 IO7      -0.604100
     19 N16         95.0420   -10.4450    11.1070 na         1 IO7       0.123800
     20 N17         94.6950    -9.4930    11.9750 nd         1 IO7      -0.547800
     21 F23         97.6550   -10.1590    12.3170 f          1 IO7      -0.111000
     22 F24         97.2250   -12.1660    11.5830 f          1 IO7      -0.111000
     23 H1          92.3360    -1.8850    14.0920 hc         1 IO7       0.063700
     24 H2          91.7900    -2.5910    12.5600 hc         1 IO7       0.063700
     25 H3          90.4710    -4.2610    13.8120 h1         1 IO7       0.060950
     26 H4          91.0670    -3.5640    15.3340 h1         1 IO7       0.060950
     27 H5          92.2400   -11.6890    12.1270 ha         1 IO7       0.168000
     28 H6          94.2630   -12.2850    10.3960 h4         1 IO7       0.154000
     29 H7          96.2050   -10.9340     9.4710 h1         1 IO7       0.082700
     30 H8          96.4740    -9.3220    10.1160 h1         1 IO7       0.082700
     31 H9          98.3800   -10.8670    10.5950 h2         1 IO7       0.060700
     32 H10         90.7340    -5.4210    16.5470 h4         1 IO7       0.043100
     33 H11         94.2260    -3.4770    14.1490 h1         1 IO7       0.060950
     34 H12         93.6920    -4.1520    12.5950 h1         1 IO7       0.060950
     35 H13         88.9570    -9.4820    16.8850 h1         1 IO7       0.070033
     36 H14         88.7690    -9.7900    15.1490 h1         1 IO7       0.070033
     37 H15         90.1470   -10.4740    16.0290 h1         1 IO7       0.070033
     38 H16         93.4640    -8.2320    13.7040 hn         1 IO7       0.391500
     39 C12         89.4860    -9.6170    15.9470 c3         1 IO7       0.070900
     40 C21         96.2870   -10.3590    10.3940 c3         1 IO7       0.031600
@<TRIPOS>BOND
     1     1     2 1   
     2     1    16 1   
     3     1    23 1   
     4     1    24 1   
     5     2    14 1   
     6     2    25 1   
     7     2    26 1   
     8     3     9 1   
     9     3    17 1   
    10     3    18 2   
    11     4     5 1   
    12     4     6 2   
    13     4    27 1   
    14     5    17 1   
    15     5    20 2   
    16     6    19 1   
    17     6    28 1   
    18     7    21 1   
    19     7    22 1   
    20     7    31 1   
    21     7    40 1   
    22     8     9 1   
    23     8    12 1   
    24     8    39 1   
    25     9    10 2   
    26    10    11 1   
    27    10    13 1   
    28    11    12 2   
    29    11    32 1   
    30    13    14 1   
    31    13    15 2   
    32    14    16 1   
    33    16    33 1   
    34    16    34 1   
    35    17    38 1   
    36    19    20 1   
    37    19    40 1   
    38    29    40 1   
    39    30    40 1   
    40    35    39 1   
    41    36    39 1   
    42    37    39 1   
@<TRIPOS>SUBSTRUCTURE
     1 IO7         1 TEMP              0 ****  ****    0 ROOT
