@<TRIPOS>MOLECULE
IO8
   35    37     1     0     0
SMALL
bcc


@<TRIPOS>ATOM
      1 C1         -13.1820    26.3590   -26.5690 cc         1 IO8       0.508900
      2 O2         -15.4700    28.4360   -25.1390 o          1 IO8      -0.604500
      3 C2         -14.8030    27.5130   -25.5700 c          1 IO8       0.681700
      4 C          -13.4390    29.2630   -28.0150 c          1 IO8       0.918600
      5 CD2        -16.1950    22.9040   -25.5110 ca         1 IO8      -0.059800
      6 CE3        -15.0330    22.4620   -26.1540 ca         1 IO8      -0.049000
      7 CZ3        -14.8860    21.1140   -26.4240 ca         1 IO8      -0.177000
      8 CH2        -15.8730    20.1840   -26.0700 ca         1 IO8      -0.115000
      9 CZ2        -17.0310    20.5880   -25.4350 ca         1 IO8      -0.165000
     10 CE2        -17.1700    21.9460   -25.1650 ca         1 IO8      -0.065200
     11 NE1        -18.2060    22.6030   -24.5510 na         1 IO8      -0.170400
     12 CD1        -17.9340    23.9180   -24.4920 cc         1 IO8      -0.120100
     13 CG         -16.7030    24.1850   -25.0690 cd         1 IO8      -0.077200
     14 CB         -16.2160    25.5280   -25.1210 cf         1 IO8      -0.032000
     15 CA2        -15.0840    26.0650   -25.6260 cd         1 IO8       0.024400
     16 N2         -14.0260    25.4330   -26.2690 nd         1 IO8      -0.649300
     17 N          -13.5550    27.6160   -26.1440 n          1 IO8      -0.373300
     18 CA         -12.9920    28.8660   -26.5850 c3         1 IO8      -0.059000
     19 O          -13.0280    30.3740   -28.3920 o          1 IO8      -0.821800
     20 CA1        -11.8770    26.1120   -27.2500 c3         1 IO8       0.116500
     21 N1         -10.7870    26.1190   -26.2790 n8         1 IO8      -0.885800
     22 OXT        -14.1420    28.4450   -28.6310 o          1 IO8      -0.821800
     23 H3         -15.7280    19.1360   -26.2970 ha         1 IO8       0.115000
     24 H4         -17.8010    19.8800   -25.1580 ha         1 IO8       0.118000
     25 H5         -19.0460    22.1700   -24.2000 hn         1 IO8       0.288700
     26 H6         -18.6280    24.6120   -24.0440 h4         1 IO8       0.158000
     27 H7         -16.8880    26.2540   -24.6730 ha         1 IO8       0.126000
     28 HA2        -11.9020    28.8170   -26.5420 h1         1 IO8       0.041700
     29 HA3        -13.2850    29.6410   -25.8770 h1         1 IO8       0.041700
     30 H12        -11.9350    25.1190   -27.6960 h1         1 IO8       0.064700
     31 H13        -11.7560    26.8250   -28.0730 h1         1 IO8       0.064700
     32 H14         -9.9410    25.8150   -26.7440 hn         1 IO8       0.335800
     33 HN2        -10.6010    27.0650   -25.9710 hn         1 IO8       0.335800
     34 H1         -14.2680    23.1720   -26.4310 ha         1 IO8       0.182000
     35 H2         -13.9880    20.7670   -26.9210 ha         1 IO8       0.123000
@<TRIPOS>BOND
     1     1    16 2   
     2     1    17 1   
     3     1    20 1   
     4     2     3 2   
     5     3    15 1   
     6     3    17 1   
     7     4    18 1   
     8     4    19 1   
     9     4    22 1   
    10     5     6 ar  
    11     5    10 ar  
    12     5    13 1   
    13     6     7 ar  
    14     6    34 1   
    15     7     8 ar  
    16     7    35 1   
    17     8     9 ar  
    18     8    23 1   
    19     9    10 ar  
    20     9    24 1   
    21    10    11 1   
    22    11    12 1   
    23    11    25 1   
    24    12    13 2   
    25    12    26 1   
    26    13    14 1   
    27    14    15 2   
    28    14    27 1   
    29    15    16 1   
    30    17    18 1   
    31    18    28 1   
    32    18    29 1   
    33    20    21 1   
    34    20    30 1   
    35    20    31 1   
    36    21    32 1   
    37    21    33 1   
@<TRIPOS>SUBSTRUCTURE
     1 IO8         1 TEMP              0 ****  ****    0 ROOT
