@<TRIPOS>MOLECULE
IO8
   35    37     1     0     0
SMALL
No Charge or Current Charge


@<TRIPOS>ATOM
      1 C1         -13.2280    26.2700   -26.2310 cc         1 IO8       0.508900
      2 O2         -15.9150    28.4470   -26.2860 o          1 IO8      -0.529000
      3 C2         -15.1120    27.5250   -26.2040 c          1 IO8       0.539200
      4 C          -13.0250    28.9570   -28.4160 c          1 IO8       0.708000
      5 CD2        -16.4440    23.0030   -25.7400 ca         1 IO8      -0.059800
      6 CE3        -15.8890    22.8080   -27.0120 ca         1 IO8      -0.031000
      7 CZ3        -15.6910    21.4770   -27.4430 ca         1 IO8      -0.159000
      8 CH2        -16.0520    20.3910   -26.6080 ca         1 IO8      -0.097000
      9 CZ2        -16.6150    20.6260   -25.3350 ca         1 IO8      -0.147000
     10 CE2        -16.7970    21.9560   -24.9340 ca         1 IO8      -0.065200
     11 NE1        -17.3330    22.4450   -23.7560 na         1 IO8      -0.220700
     12 CD1        -17.3450    23.8570   -23.7820 cc         1 IO8      -0.170100
     13 CG         -16.7850    24.2020   -25.0060 cd         1 IO8      -0.077200
     14 CB         -16.6220    25.5750   -25.4940 cf         1 IO8      -0.082000
     15 CA2        -15.3000    26.1080   -25.8540 cd         1 IO8       0.024400
     16 N2         -14.1350    25.3490   -25.8670 nd         1 IO8      -0.649300
     17 N          -13.7570    27.5420   -26.4280 n          1 IO8      -0.306300
     18 CA         -13.0270    28.7570   -26.8830 c3         1 IO8      -0.059000
     19 O          -13.3930    30.0350   -28.8600 o          1 IO8      -0.716500
     20 CA1        -11.7370    25.9470   -26.3960 c3         1 IO8       0.116500
     21 N1         -10.8540    26.2430   -25.2100 n8         1 IO8      -0.996200
     22 OXT        -12.6830    28.0170   -29.1210 o          1 IO8      -0.716500
     23 H3         -15.8960    19.3710   -26.9510 ha         1 IO8       0.097000
     24 H4         -16.8990    19.7990   -24.6880 ha         1 IO8       0.100000
     25 H5         -17.6730    21.8680   -22.9920 hn         1 IO8       0.339000
     26 H6         -17.7320    24.4680   -22.9720 h4         1 IO8       0.208000
     27 H7         -17.3800    26.3050   -25.2080 ha         1 IO8       0.176000
     28 HA2        -11.9840    28.7090   -26.5480 h1         1 IO8       0.041700
     29 HA3        -13.4820    29.6410   -26.4180 h1         1 IO8       0.041700
     30 H12        -11.6470    24.8770   -26.6320 h1         1 IO8       0.064700
     31 H13        -11.3540    26.4970   -27.2660 h1         1 IO8       0.064700
     32 H14         -9.8760    26.0410   -25.4540 hn         1 IO8       0.391000
     33 HN2        -10.8570    27.2540   -25.0250 hn         1 IO8       0.391000
     34 H1         -15.6190    23.6520   -27.6430 ha         1 IO8       0.164000
     35 H2         -15.2610    21.2870   -28.4240 ha         1 IO8       0.105000
@<TRIPOS>BOND
     1     1    16 2   
     2     1    17 1   
     3     1    20 1   
     4     2     3 2   
     5     3    15 1   
     6     3    17 1   
     7     4    18 1   
     8     4    19 1   
     9     4    22 1   
    10     5     6 ar  
    11     5    10 ar  
    12     5    13 1   
    13     6     7 ar  
    14     6    34 1   
    15     7     8 ar  
    16     7    35 1   
    17     8     9 ar  
    18     8    23 1   
    19     9    10 ar  
    20     9    24 1   
    21    10    11 1   
    22    11    12 1   
    23    11    25 1   
    24    12    13 2   
    25    12    26 1   
    26    13    14 1   
    27    14    15 2   
    28    14    27 1   
    29    15    16 1   
    30    17    18 1   
    31    18    28 1   
    32    18    29 1   
    33    20    21 1   
    34    20    30 1   
    35    20    31 1   
    36    21    32 1   
    37    21    33 1   
@<TRIPOS>SUBSTRUCTURE
     1 IO8         1 TEMP              0 ****  ****    0 ROOT
