@<TRIPOS>MOLECULE
IO9
   15    14     1     0     0
SMALL
abcg2


@<TRIPOS>ATOM
      1 C01        -10.9920     9.4710   -11.1690 c          1 IO9       0.689000
      2 C02         -8.9100     7.9720   -15.0780 c          1 IO9       0.644000
      3 C03        -10.4640     9.3470   -12.6190 c3         1 IO9       0.036300
      4 C04        -10.6850     7.9210   -13.1430 c3         1 IO9      -0.169400
      5 C05        -10.3910     7.8350   -14.6170 c          1 IO9       0.452100
      6 O01        -10.4880     8.7410   -10.3050 o          1 IO9      -0.746500
      7 O02        -11.9050    10.3170   -11.0280 o          1 IO9      -0.746500
      8 O03         -8.0570     7.8700   -14.1780 o          1 IO9      -0.724500
      9 O04         -8.7380     8.1550   -16.2920 o          1 IO9      -0.724500
     10 O05        -11.1170    10.2870   -13.4330 oh         1 IO9      -0.705000
     11 O06        -11.2720     7.6620   -15.4300 o          1 IO9      -0.601100
     12 H04         -9.3850     9.5440   -12.6130 h1         1 IO9       0.060700
     13 H05        -11.7230     7.6180   -12.9750 hc         1 IO9       0.041200
     14 H06        -10.0370     7.2400   -12.5910 hc         1 IO9       0.041200
     15 H03        -11.7550    10.6820   -12.8060 ho         1 IO9       0.454000
@<TRIPOS>BOND
     1     1     3 1   
     2     1     6 1   
     3     1     7 1   
     4     2     5 1   
     5     2     8 1   
     6     2     9 1   
     7     3     4 1   
     8     3    10 1   
     9     3    12 1   
    10     4     5 1   
    11     4    13 1   
    12     4    14 1   
    13     5    11 2   
    14    10    15 1   
@<TRIPOS>SUBSTRUCTURE
     1 IO9         1 TEMP              0 ****  ****    0 ROOT
