@<TRIPOS>MOLECULE
IO9
   15    14     1     0     0
SMALL
No Charge or Current Charge


@<TRIPOS>ATOM
      1 C01        -10.8500     9.4180   -11.0780 c          1 IO9       0.689000
      2 C02         -8.7690     7.6880   -15.0310 c          1 IO9       0.644000
      3 C03        -10.5920     9.4380   -12.6330 c3         1 IO9       0.036300
      4 C04        -10.7990     8.0360   -13.2660 c3         1 IO9      -0.169400
      5 C05        -10.3460     7.9840   -14.7430 c          1 IO9       0.452100
      6 O01         -9.9340     9.1000   -10.3320 o          1 IO9      -0.746500
      7 O02        -11.9240     9.8480   -10.6750 o          1 IO9      -0.746500
      8 O03         -7.9650     7.7820   -14.1060 o          1 IO9      -0.724500
      9 O04         -8.4260     7.3780   -16.1710 o          1 IO9      -0.724500
     10 O05        -11.4430    10.3990   -13.3070 oh         1 IO9      -0.705000
     11 O06        -11.1640     8.1570   -15.6550 o          1 IO9      -0.601100
     12 H04         -9.5380     9.7210   -12.7660 h1         1 IO9       0.060700
     13 H05        -11.8540     7.7480   -13.1810 hc         1 IO9       0.041200
     14 H06        -10.1710     7.3490   -12.6880 hc         1 IO9       0.041200
     15 H03        -12.1440    10.6170   -12.6450 ho         1 IO9       0.454000
@<TRIPOS>BOND
     1     1     3 1   
     2     1     6 1   
     3     1     7 1   
     4     2     5 1   
     5     2     8 1   
     6     2     9 1   
     7     3     4 1   
     8     3    10 1   
     9     3    12 1   
    10     4     5 1   
    11     4    13 1   
    12     4    14 1   
    13     5    11 2   
    14    10    15 1   
@<TRIPOS>SUBSTRUCTURE
     1 IO9         1 TEMP              0 ****  ****    0 ROOT
