@<TRIPOS>MOLECULE
IOA
   34    35     1     0     0
SMALL
No Charge or Current Charge


@<TRIPOS>ATOM
      1 C01         -1.7890     0.1060     2.2870 ca         1 IOA      -0.096500
      2 C02         -1.1310     0.0020     3.5240 ca         1 IOA      -0.018000
      3 C03          0.2690    -0.1400     3.5710 ca         1 IOA      -0.253500
      4 C04          1.0020    -0.1790     2.3690 ca         1 IOA      -0.018000
      5 C05          0.3420    -0.0760     1.1310 ca         1 IOA      -0.096500
      6 C06         -1.0670     0.0690     1.0710 ca         1 IOA      -0.096600
      7 C07         -1.8150     0.1850    -0.2450 c          1 IOA       0.613700
      8 O08         -3.0320     0.3070    -0.2970 o          1 IOA      -0.582100
      9 N09         -1.0600     0.1450    -1.3960 ns         1 IOA      -0.499900
     10 C10         -1.6110     0.2440    -2.7450 c3         1 IOA       0.150300
     11 S11          1.1200    -0.2750     5.1480 sy         1 IOA       1.122600
     12 NP2          1.2040    -1.8970     5.3510 n8         1 IOA      -1.001100
     13 O13          0.2420     0.1650     6.2300 o          1 IOA      -0.541500
     14 O14          2.5090     0.1650     5.0220 o          1 IOA      -0.541500
     15 C15         -0.5060     0.1850    -3.7890 ca         1 IOA      -0.134300
     16 C16         -0.0320    -1.0670    -4.2380 ca         1 IOA      -0.120000
     17 C17          0.9900    -1.1320    -5.1990 ca         1 IOA       0.155000
     18 C18          1.5510     0.0440    -5.7230 ca         1 IOA      -0.118000
     19 C19          1.0850     1.2950    -5.2790 ca         1 IOA      -0.128000
     20 C20          0.0630     1.3640    -4.3180 ca         1 IOA       0.172000
     21 F21         -0.3670     2.5760    -3.9010 f          1 IOA      -0.165000
     22 F22          1.4370    -2.3350    -5.6220 f          1 IOA      -0.173000
     23 H011        -2.8710     0.2170     2.2770 ha         1 IOA       0.130500
     24 H021        -1.7170     0.0360     4.4420 ha         1 IOA       0.141000
     25 H041         2.0860    -0.2910     2.3870 ha         1 IOA       0.141000
     26 H051         0.9460    -0.1100     0.2280 ha         1 IOA       0.130500
     27 H091        -0.0600     0.0420    -1.2930 hn         1 IOA       0.318500
     28 H101        -2.3150    -0.5840    -2.9040 h1         1 IOA       0.072700
     29 H102        -2.1760     1.1820    -2.8360 h1         1 IOA       0.072700
     30 HP21         0.8320    -1.9940     6.2930 hn         1 IOA       0.474500
     31 HP22         0.4490    -2.2310     4.7560 hn         1 IOA       0.474500
     32 H161        -0.4530    -1.9880    -3.8420 ha         1 IOA       0.135000
     33 H181         2.3420    -0.0170    -6.4660 ha         1 IOA       0.139000
     34 H191         1.5150     2.2110    -5.6780 ha         1 IOA       0.140000
@<TRIPOS>BOND
     1     1     2 ar  
     2     1     6 ar  
     3     1    23 1   
     4     2     3 ar  
     5     2    24 1   
     6     3     4 ar  
     7     3    11 1   
     8     4     5 ar  
     9     4    25 1   
    10     5     6 ar  
    11     5    26 1   
    12     6     7 1   
    13     7     8 2   
    14     7     9 1   
    15     9    10 1   
    16     9    27 1   
    17    10    15 1   
    18    10    28 1   
    19    10    29 1   
    20    11    12 1   
    21    11    13 2   
    22    11    14 2   
    23    12    30 1   
    24    12    31 1   
    25    15    16 ar  
    26    15    20 ar  
    27    16    17 ar  
    28    16    32 1   
    29    17    18 ar  
    30    17    22 1   
    31    18    19 ar  
    32    18    33 1   
    33    19    20 ar  
    34    19    34 1   
    35    20    21 1   
@<TRIPOS>SUBSTRUCTURE
     1 IOA         1 TEMP              0 ****  ****    0 ROOT
