@<TRIPOS>MOLECULE
IOA
   34    35     1     0     0
SMALL
abcg2


@<TRIPOS>ATOM
      1 C01         -1.0860     0.8500     1.7150 ca         1 IOA      -0.096500
      2 C02         -0.4770     0.8990     2.9590 ca         1 IOA      -0.018000
      3 C03          0.3000    -0.1730     3.3690 ca         1 IOA      -0.253500
      4 C04          0.4820    -1.2860     2.5610 ca         1 IOA      -0.018000
      5 C05         -0.1140    -1.3150     1.3130 ca         1 IOA      -0.096500
      6 C06         -0.8950    -0.2450     0.8790 ca         1 IOA      -0.096600
      7 C07         -1.5720    -0.2320    -0.4580 c          1 IOA       0.613700
      8 O08         -2.6510     0.3210    -0.6020 o          1 IOA      -0.582100
      9 N09         -0.9060    -0.8570    -1.4430 ns         1 IOA      -0.499900
     10 C10         -1.3510    -0.9040    -2.8170 c3         1 IOA       0.150300
     11 S11          1.1000    -0.1270     4.9510 sy         1 IOA       1.122600
     12 NP2          0.1610    -1.1800     5.8070 n8         1 IOA      -1.001100
     13 O13          1.0260     1.2400     5.4460 o          1 IOA      -0.541500
     14 O14          2.4090    -0.7540     4.8480 o          1 IOA      -0.541500
     15 C15         -0.4130    -0.1760    -3.7430 ca         1 IOA      -0.134300
     16 C16          0.2370    -0.8510    -4.7700 ca         1 IOA      -0.120000
     17 C17          1.0910    -0.1640    -5.6120 ca         1 IOA       0.155000
     18 C18          1.3390     1.1860    -5.4640 ca         1 IOA      -0.118000
     19 C19          0.6970     1.8690    -4.4400 ca         1 IOA      -0.128000
     20 C20         -0.1640     1.1830    -3.6080 ca         1 IOA       0.172000
     21 F21         -0.7880     1.8580    -2.6300 f          1 IOA      -0.165000
     22 F22          1.7010    -0.8340    -6.6020 f          1 IOA      -0.173000
     23 H011        -1.7010     1.6790     1.3930 ha         1 IOA       0.130500
     24 H021        -0.6140     1.7640     3.5920 ha         1 IOA       0.141000
     25 H041         1.0790    -2.1260     2.8900 ha         1 IOA       0.141000
     26 H051         0.0210    -2.1920     0.6940 ha         1 IOA       0.130500
     27 H091         0.0160    -1.2180    -1.2560 hn         1 IOA       0.318500
     28 H101        -1.4280    -1.9440    -3.1370 h1         1 IOA       0.072700
     29 H102        -2.3540    -0.4830    -2.8700 h1         1 IOA       0.072700
     30 HP21         0.6330    -1.4880     6.6530 hn         1 IOA       0.474500
     31 HP22        -0.7500    -0.7960     6.0370 hn         1 IOA       0.474500
     32 H161         0.0700    -1.9110    -4.9120 ha         1 IOA       0.135000
     33 H181         2.0170     1.7020    -6.1300 ha         1 IOA       0.139000
     34 H191         0.8650     2.9280    -4.2970 ha         1 IOA       0.140000
@<TRIPOS>BOND
     1     1     2 ar  
     2     1     6 ar  
     3     1    23 1   
     4     2     3 ar  
     5     2    24 1   
     6     3     4 ar  
     7     3    11 1   
     8     4     5 ar  
     9     4    25 1   
    10     5     6 ar  
    11     5    26 1   
    12     6     7 1   
    13     7     8 2   
    14     7     9 1   
    15     9    10 1   
    16     9    27 1   
    17    10    15 1   
    18    10    28 1   
    19    10    29 1   
    20    11    12 1   
    21    11    13 2   
    22    11    14 2   
    23    12    30 1   
    24    12    31 1   
    25    15    16 ar  
    26    15    20 ar  
    27    16    17 ar  
    28    16    32 1   
    29    17    18 ar  
    30    17    22 1   
    31    18    19 ar  
    32    18    33 1   
    33    19    20 ar  
    34    19    34 1   
    35    20    21 1   
@<TRIPOS>SUBSTRUCTURE
     1 IOA         1 TEMP              0 ****  ****    0 ROOT
