@<TRIPOS>MOLECULE
IOB
   16    16     1     0     0
SMALL
No Charge or Current Charge


@<TRIPOS>ATOM
      1 CG           0.0120     0.3020     2.5180 ca         1 IOB      -0.090300
      2 CD2         -1.3620     0.1260     2.7800 ca         1 IOB      -0.075000
      3 CD1          0.4720     0.2560     1.1860 ca         1 IOB      -0.058000
      4 CE2         -2.2650    -0.0910     1.7240 ca         1 IOB      -0.116000
      5 CE1         -0.4300     0.0380     0.1330 ca         1 IOB       0.193000
      6 CZ          -1.7980    -0.1350     0.3980 ca         1 IOB      -0.074000
      7 I            0.2900    -0.0310    -1.9100 i          1 IOB      -0.317000
      8 O            1.6280    -0.6890     4.0250 oh         1 IOB      -0.652000
      9 CB           0.9910     0.5390     3.6590 c3         1 IOB       0.207900
     10 HD2         -1.7310     0.1560     3.8040 ha         1 IOB       0.117000
     11 HD1          1.5290     0.3870     0.9680 ha         1 IOB       0.128000
     12 HE2         -3.3240    -0.2260     1.9320 ha         1 IOB       0.118000
     13 HZ          -2.4920    -0.3030    -0.4210 ha         1 IOB       0.127000
     14 H            2.2420    -0.4790     4.7630 ho         1 IOB       0.442000
     15 HB2          0.4550     0.9610     4.5200 h1         1 IOB       0.025700
     16 HB1          1.7400     1.2780     3.3440 h1         1 IOB       0.025700
@<TRIPOS>BOND
     1     1     2 ar  
     2     1     3 ar  
     3     1     9 1   
     4     2     4 ar  
     5     2    10 1   
     6     3     5 ar  
     7     3    11 1   
     8     4     6 ar  
     9     4    12 1   
    10     5     6 ar  
    11     5     7 1   
    12     6    13 1   
    13     8     9 1   
    14     8    14 1   
    15     9    15 1   
    16     9    16 1   
@<TRIPOS>SUBSTRUCTURE
     1 IOB         1 TEMP              0 ****  ****    0 ROOT
