@<TRIPOS>MOLECULE
IOB
   16    16     1     0     0
SMALL
bcc


@<TRIPOS>ATOM
      1 CG           0.0070     0.3380     2.5160 ca         1 IOB      -0.090300
      2 CD2         -1.3460     0.1420     2.7690 ca         1 IOB      -0.093000
      3 CD1          0.4690     0.2790     1.2030 ca         1 IOB      -0.076000
      4 CE2         -2.2300    -0.1000     1.7270 ca         1 IOB      -0.134000
      5 CE1         -0.4240     0.0360     0.1710 ca         1 IOB       0.055900
      6 CZ          -1.7760    -0.1550     0.4170 ca         1 IOB      -0.092000
      7 I            0.2860    -0.0390    -1.8100 i          1 IOB      -0.179900
      8 O            1.5460    -0.7000     3.9680 oh         1 IOB      -0.589800
      9 CB           0.9790     0.5520     3.6410 c3         1 IOB       0.184700
     10 HD2         -1.7130     0.1830     3.7870 ha         1 IOB       0.135000
     11 HD1          1.5220     0.4330     1.0030 ha         1 IOB       0.146000
     12 HE2         -3.2830    -0.2460     1.9300 ha         1 IOB       0.136000
     13 HZ          -2.4730    -0.3420    -0.3900 ha         1 IOB       0.145000
     14 H            2.1950    -0.5570     4.6640 ho         1 IOB       0.403000
     15 HB2          0.4520     0.9930     4.4950 h1         1 IOB       0.025700
     16 HB1          1.7460     1.2710     3.3310 h1         1 IOB       0.025700
@<TRIPOS>BOND
     1     1     2 ar  
     2     1     3 ar  
     3     1     9 1   
     4     2     4 ar  
     5     2    10 1   
     6     3     5 ar  
     7     3    11 1   
     8     4     6 ar  
     9     4    12 1   
    10     5     6 ar  
    11     5     7 1   
    12     6    13 1   
    13     8     9 1   
    14     8    14 1   
    15     9    15 1   
    16     9    16 1   
@<TRIPOS>SUBSTRUCTURE
     1 IOB         1 TEMP              0 ****  ****    0 ROOT
