@<TRIPOS>MOLECULE
IOC
   34    35     1     0     0
SMALL
No Charge or Current Charge


@<TRIPOS>ATOM
      1 C01         -1.8850     0.4640     2.6030 ca         1 IOC      -0.095500
      2 C02         -1.1950     0.2840     3.8140 ca         1 IOC      -0.019000
      3 C03          0.1420    -0.1580     3.8070 ca         1 IOC      -0.249500
      4 C04          0.7790    -0.4210     2.5780 ca         1 IOC      -0.019000
      5 C05          0.0860    -0.2410     1.3670 ca         1 IOC      -0.095500
      6 C06         -1.2590     0.2060     1.3620 ca         1 IOC      -0.098600
      7 C07         -2.0400     0.4130     0.0760 c          1 IOC       0.613700
      8 O08         -3.2010     0.7990     0.0710 o          1 IOC      -0.580100
      9 N09         -1.3800     0.1470    -1.1030 ns         1 IOC      -0.504900
     10 C10         -1.9740     0.2920    -2.4290 c3         1 IOC       0.152300
     11 S11          1.0290    -0.3900     5.3540 sy         1 IOC       1.123600
     12 NP2          0.7120    -1.9450     5.7340 n8         1 IOC      -1.005100
     13 O13          0.3970     0.3620     6.4370 o          1 IOC      -0.539500
     14 O14          2.4730    -0.3780     5.1370 o          1 IOC      -0.539500
     15 C15         -0.9610    -0.0320    -3.5160 ca         1 IOC      -0.150300
     16 C16         -0.1690     0.9830    -4.0990 ca         1 IOC       0.177000
     17 C17          0.7670     0.6690    -5.1020 ca         1 IOC       0.086000
     18 C18          0.9150    -0.6630    -5.5260 ca         1 IOC       0.168000
     19 C19          0.1330    -1.6780    -4.9510 ca         1 IOC      -0.148000
     20 C20         -0.8020    -1.3650    -3.9490 ca         1 IOC      -0.067000
     21 F21          1.8110    -0.9780    -6.4890 f          1 IOC      -0.151000
     22 F22         -0.3030     2.2660    -3.6890 f          1 IOC      -0.144000
     23 F23          1.5240     1.6460    -5.6560 f          1 IOC      -0.140000
     24 H011        -2.9170     0.8070     2.6350 ha         1 IOC       0.130500
     25 H021        -1.7040     0.4890     4.7550 ha         1 IOC       0.141000
     26 H041         1.8110    -0.7680     2.5550 ha         1 IOC       0.141000
     27 H051         0.6140    -0.4550     0.4420 ha         1 IOC       0.130500
     28 H091        -0.4220    -0.1700    -1.0390 hn         1 IOC       0.318500
     29 H101        -2.8350    -0.3860    -2.5100 h1         1 IOC       0.072700
     30 H102        -2.3480     1.3180    -2.5470 h1         1 IOC       0.072700
     31 HP21         0.3710    -1.8350     6.6860 hn         1 IOC       0.475000
     32 HP22         1.6560    -2.2920     5.8860 hn         1 IOC       0.475000
     33 H191         0.2530    -2.7070    -5.2830 ha         1 IOC       0.143000
     34 H201        -1.4030    -2.1590    -3.5070 ha         1 IOC       0.126000
@<TRIPOS>BOND
     1     1     2 ar  
     2     1     6 ar  
     3     1    24 1   
     4     2     3 ar  
     5     2    25 1   
     6     3     4 ar  
     7     3    11 1   
     8     4     5 ar  
     9     4    26 1   
    10     5     6 ar  
    11     5    27 1   
    12     6     7 1   
    13     7     8 2   
    14     7     9 1   
    15     9    10 1   
    16     9    28 1   
    17    10    15 1   
    18    10    29 1   
    19    10    30 1   
    20    11    12 1   
    21    11    13 2   
    22    11    14 2   
    23    12    31 1   
    24    12    32 1   
    25    15    16 ar  
    26    15    20 ar  
    27    16    17 ar  
    28    16    22 1   
    29    17    18 ar  
    30    17    23 1   
    31    18    19 ar  
    32    18    21 1   
    33    19    20 ar  
    34    19    33 1   
    35    20    34 1   
@<TRIPOS>SUBSTRUCTURE
     1 IOC         1 TEMP              0 ****  ****    0 ROOT
