@<TRIPOS>MOLECULE
IOC
   34    35     1     0     0
SMALL
abcg2


@<TRIPOS>ATOM
      1 C01         -1.7060     0.6450     2.4450 ca         1 IOC      -0.095500
      2 C02         -1.0610     0.4780     3.6560 ca         1 IOC      -0.019000
      3 C03          0.2350    -0.0210     3.6680 ca         1 IOC      -0.249500
      4 C04          0.8910    -0.3570     2.4950 ca         1 IOC      -0.019000
      5 C05          0.2250    -0.2070     1.2870 ca         1 IOC      -0.095500
      6 C06         -1.0740     0.2880     1.2560 ca         1 IOC      -0.098600
      7 C07         -1.8100     0.5100    -0.0300 c          1 IOC       0.613700
      8 O08         -2.5850     1.4460    -0.1500 o          1 IOC      -0.580100
      9 N09         -1.5570    -0.3880    -0.9960 ns         1 IOC      -0.504900
     10 C10         -2.1230    -0.3250    -2.3250 c3         1 IOC       0.152300
     11 S11          1.0650    -0.2130     5.2240 sy         1 IOC       1.123600
     12 NP2          0.3860    -1.6150     5.7690 n8         1 IOC      -1.005100
     13 O13          0.6190     0.8280     6.1380 o          1 IOC      -0.539500
     14 O14          2.4900    -0.3390     4.9540 o          1 IOC      -0.539500
     15 C15         -1.0560    -0.3340    -3.3840 ca         1 IOC      -0.150300
     16 C16         -0.1550     0.7150    -3.4890 ca         1 IOC       0.177000
     17 C17          0.8390     0.7250    -4.4480 ca         1 IOC       0.086000
     18 C18          0.9390    -0.3380    -5.3300 ca         1 IOC       0.168000
     19 C19          0.0610    -1.3980    -5.2570 ca         1 IOC      -0.148000
     20 C20         -0.9260    -1.3870    -4.2820 ca         1 IOC      -0.067000
     21 F21          1.9040    -0.3100    -6.2500 f          1 IOC      -0.151000
     22 F22         -0.2390     1.7540    -2.6570 f          1 IOC      -0.144000
     23 F23          1.6880     1.7480    -4.5250 f          1 IOC      -0.140000
     24 H011        -2.7090     1.0480     2.4270 ha         1 IOC       0.130500
     25 H021        -1.5650     0.7410     4.5770 ha         1 IOC       0.141000
     26 H041         1.9070    -0.7260     2.5060 ha         1 IOC       0.141000
     27 H051         0.7490    -0.4540     0.3720 ha         1 IOC       0.130500
     28 H091        -1.0030    -1.2010    -0.7760 hn         1 IOC       0.318500
     29 H101        -2.7890    -1.1750    -2.4840 h1         1 IOC       0.072700
     30 H102        -2.7350     0.5730    -2.3940 h1         1 IOC       0.072700
     31 HP21         0.4830    -1.7070     6.7760 hn         1 IOC       0.475000
     32 HP22         0.7520    -2.4380     5.3030 hn         1 IOC       0.475000
     33 H191         0.1520    -2.2230    -5.9510 ha         1 IOC       0.143000
     34 H201        -1.6150    -2.2190    -4.2200 ha         1 IOC       0.126000
@<TRIPOS>BOND
     1     1     2 ar  
     2     1     6 ar  
     3     1    24 1   
     4     2     3 ar  
     5     2    25 1   
     6     3     4 ar  
     7     3    11 1   
     8     4     5 ar  
     9     4    26 1   
    10     5     6 ar  
    11     5    27 1   
    12     6     7 1   
    13     7     8 2   
    14     7     9 1   
    15     9    10 1   
    16     9    28 1   
    17    10    15 1   
    18    10    29 1   
    19    10    30 1   
    20    11    12 1   
    21    11    13 2   
    22    11    14 2   
    23    12    31 1   
    24    12    32 1   
    25    15    16 ar  
    26    15    20 ar  
    27    16    17 ar  
    28    16    22 1   
    29    17    18 ar  
    30    17    23 1   
    31    18    19 ar  
    32    18    21 1   
    33    19    20 ar  
    34    19    33 1   
    35    20    34 1   
@<TRIPOS>SUBSTRUCTURE
     1 IOC         1 TEMP              0 ****  ****    0 ROOT
