@<TRIPOS>MOLECULE
IOE
   34    35     1     0     0
SMALL
bcc


@<TRIPOS>ATOM
      1 C01         -1.7680     0.2640     2.3490 ca         1 IOE      -0.114000
      2 C02         -1.1530     0.2750     3.5870 ca         1 IOE      -0.037000
      3 C03          0.2310     0.1640     3.6540 ca         1 IOE      -0.251500
      4 C04          1.0010     0.0420     2.5100 ca         1 IOE      -0.037000
      5 C05          0.3700     0.0110     1.2740 ca         1 IOE      -0.114000
      6 C06         -1.0130     0.1170     1.1870 ca         1 IOE      -0.097600
      7 C07         -1.7290     0.1390    -0.1290 c          1 IOE       0.680700
      8 O08         -2.7440     0.8010    -0.2750 o          1 IOE      -0.581100
      9 N09         -1.1790    -0.6150    -1.0950 ns         1 IOE      -0.571900
     10 C10         -1.6770    -0.6700    -2.4510 c3         1 IOE       0.159300
     11 S11          1.0130     0.2090     5.2440 sy         1 IOE       1.267200
     12 NP2          0.7070    -1.3180     5.7890 n8         1 IOE      -0.895700
     13 O13          0.2660     1.1010     6.1180 o          1 IOE      -0.611300
     14 O14          2.4310     0.4640     5.0350 o          1 IOE      -0.611300
     15 C15         -0.6020    -0.3120    -3.4420 ca         1 IOE      -0.222300
     16 C16         -0.0490    -1.2250    -4.3270 ca         1 IOE       0.204400
     17 C17          0.9480    -0.9120    -5.2330 ca         1 IOE      -0.240500
     18 C18          1.4090     0.3890    -5.2350 ca         1 IOE       0.201900
     19 C19          0.9160     1.3580    -4.3820 ca         1 IOE      -0.240500
     20 C20         -0.0790     0.9730    -3.5070 ca         1 IOE       0.204400
     21 F21         -0.5730     1.8900    -2.6710 f          1 IOE      -0.124400
     22 F22          2.3690     0.7270    -6.0980 f          1 IOE      -0.125900
     23 F23         -0.5000    -2.4830    -4.3130 f          1 IOE      -0.124400
     24 H011        -2.8430     0.3620     2.2890 ha         1 IOE       0.148000
     25 H021        -1.7500     0.3750     4.4830 ha         1 IOE       0.159000
     26 H041         2.0790    -0.0230     2.5640 ha         1 IOE       0.159000
     27 H051         0.9820    -0.0670     0.3850 ha         1 IOE       0.148000
     28 H091        -0.4150    -1.2300    -0.8640 hn         1 IOE       0.319500
     29 H101        -2.0700    -1.6640    -2.6600 h1         1 IOE       0.077700
     30 H102        -2.5150     0.0200    -2.5350 h1         1 IOE       0.077700
     31 HP21         0.7780    -1.3740     6.8010 hn         1 IOE       0.419800
     32 HP22         1.2990    -2.0190     5.3550 hn         1 IOE       0.419800
     33 H171         1.3470    -1.6570    -5.9080 ha         1 IOE       0.176500
     34 H191         1.2890     2.3740    -4.3990 ha         1 IOE       0.176500
@<TRIPOS>BOND
     1     1     2 ar  
     2     1     6 ar  
     3     1    24 1   
     4     2     3 ar  
     5     2    25 1   
     6     3     4 ar  
     7     3    11 1   
     8     4     5 ar  
     9     4    26 1   
    10     5     6 ar  
    11     5    27 1   
    12     6     7 1   
    13     7     8 2   
    14     7     9 1   
    15     9    10 1   
    16     9    28 1   
    17    10    15 1   
    18    10    29 1   
    19    10    30 1   
    20    11    12 1   
    21    11    13 2   
    22    11    14 2   
    23    12    31 1   
    24    12    32 1   
    25    15    16 ar  
    26    15    20 ar  
    27    16    17 ar  
    28    16    23 1   
    29    17    18 ar  
    30    17    33 1   
    31    18    19 ar  
    32    18    22 1   
    33    19    20 ar  
    34    19    34 1   
    35    20    21 1   
@<TRIPOS>SUBSTRUCTURE
     1 IOE         1 TEMP              0 ****  ****    0 ROOT
