@<TRIPOS>MOLECULE
IOE
   34    35     1     0     0
SMALL
No Charge or Current Charge


@<TRIPOS>ATOM
      1 C01         -1.9110    -0.0160     2.4920 ca         1 IOE      -0.096000
      2 C02         -1.2600    -0.0010     3.7380 ca         1 IOE      -0.019000
      3 C03          0.1460     0.0250     3.8000 ca         1 IOE      -0.251500
      4 C04          0.8930     0.0320     2.6060 ca         1 IOE      -0.019000
      5 C05          0.2400     0.0180     1.3610 ca         1 IOE      -0.096000
      6 C06         -1.1750    -0.0060     1.2850 ca         1 IOE      -0.097600
      7 C07         -1.9160    -0.0220    -0.0400 c          1 IOE       0.613700
      8 O08         -3.1380    -0.0440    -0.1060 o          1 IOE      -0.581100
      9 N09         -1.1480    -0.0110    -1.1830 ns         1 IOE      -0.504900
     10 C10         -1.6930    -0.0230    -2.5380 c3         1 IOE       0.159300
     11 S11          0.9820     0.0430     5.3920 sy         1 IOE       1.125600
     12 NP2          1.1830    -1.5410     5.7240 n8         1 IOE      -1.006100
     13 O13          0.0840     0.5030     6.4500 o          1 IOE      -0.540500
     14 O14          2.3500     0.5410     5.2600 o          1 IOE      -0.540500
     15 C15         -0.5740    -0.0050    -3.5690 ca         1 IOE      -0.222300
     16 C16         -0.0230    -1.2080    -4.0540 ca         1 IOE       0.239500
     17 C17          1.0060    -1.1920    -5.0050 ca         1 IOE      -0.222500
     18 C18          1.4950     0.0300    -5.4800 ca         1 IOE       0.237000
     19 C19          0.9610     1.2350    -5.0090 ca         1 IOE      -0.222500
     20 C20         -0.0680     1.2160    -4.0590 ca         1 IOE       0.239500
     21 F21         -0.5690     2.3900    -3.6120 f          1 IOE      -0.159500
     22 F22          2.4870     0.0470    -6.3950 f          1 IOE      -0.161000
     23 F23         -0.4800    -2.3970    -3.6040 f          1 IOE      -0.159500
     24 H011        -2.9990    -0.0360     2.4700 ha         1 IOE       0.130000
     25 H021        -1.8540    -0.0120     4.6510 ha         1 IOE       0.141000
     26 H041         1.9820     0.0480     2.6370 ha         1 IOE       0.141000
     27 H051         0.8540     0.0250     0.4640 ha         1 IOE       0.130000
     28 H091        -0.1450     0.0080    -1.0690 hn         1 IOE       0.319500
     29 H101        -2.3140    -0.9200    -2.6660 h1         1 IOE       0.077700
     30 H102        -2.3470     0.8490    -2.6700 h1         1 IOE       0.077700
     31 HP21         0.7780    -1.5860     6.6560 hn         1 IOE       0.475000
     32 HP22         2.1810    -1.5610     5.9240 hn         1 IOE       0.475000
     33 H171         1.4240    -2.1250    -5.3710 ha         1 IOE       0.158500
     34 H191         1.3440     2.1820    -5.3790 ha         1 IOE       0.158500
@<TRIPOS>BOND
     1     1     2 ar  
     2     1     6 ar  
     3     1    24 1   
     4     2     3 ar  
     5     2    25 1   
     6     3     4 ar  
     7     3    11 1   
     8     4     5 ar  
     9     4    26 1   
    10     5     6 ar  
    11     5    27 1   
    12     6     7 1   
    13     7     8 2   
    14     7     9 1   
    15     9    10 1   
    16     9    28 1   
    17    10    15 1   
    18    10    29 1   
    19    10    30 1   
    20    11    12 1   
    21    11    13 2   
    22    11    14 2   
    23    12    31 1   
    24    12    32 1   
    25    15    16 ar  
    26    15    20 ar  
    27    16    17 ar  
    28    16    23 1   
    29    17    18 ar  
    30    17    33 1   
    31    18    19 ar  
    32    18    22 1   
    33    19    20 ar  
    34    19    34 1   
    35    20    21 1   
@<TRIPOS>SUBSTRUCTURE
     1 IOE         1 TEMP              0 ****  ****    0 ROOT
