@<TRIPOS>MOLECULE
IOF
   34    35     1     0     0
SMALL
abcg2


@<TRIPOS>ATOM
      1 C01         -1.9360     0.2690     2.6460 ca         1 IOF      -0.096000
      2 C02         -1.3000     0.3280     3.8760 ca         1 IOF      -0.017500
      3 C03          0.0800     0.2070     3.9250 ca         1 IOF      -0.249500
      4 C04          0.8320     0.0320     2.7720 ca         1 IOF      -0.017500
      5 C05          0.1850    -0.0400     1.5520 ca         1 IOF      -0.096000
      6 C06         -1.2020     0.0710     1.4810 ca         1 IOF      -0.101600
      7 C07         -1.9380     0.0440     0.1760 c          1 IOF       0.609700
      8 O08         -2.9710     0.6780     0.0290 o          1 IOF      -0.584100
      9 N09         -1.3800    -0.7120    -0.7860 ns         1 IOF      -0.505900
     10 C10         -1.9000    -0.8220    -2.1260 c3         1 IOF       0.142300
     11 S11          0.9220     0.3120     5.4830 sy         1 IOF       1.127600
     12 NP2          1.3660    -1.2600     5.7100 n8         1 IOF      -1.011100
     13 O13         -0.0370     0.7780     6.4730 o          1 IOF      -0.539500
     14 O14          2.1600     1.0560     5.3050 o          1 IOF      -0.539500
     15 C15         -0.8920    -0.3970    -3.1640 ca         1 IOF      -0.071300
     16 C16         -0.7250    -1.1550    -4.3160 ca         1 IOF      -0.138500
     17 C17          0.1750    -0.7450    -5.2790 ca         1 IOF       0.162000
     18 C18          0.9210     0.4070    -5.1160 ca         1 IOF       0.091000
     19 C19          0.7470     1.1510    -3.9620 ca         1 IOF       0.162000
     20 C20         -0.1460     0.7650    -2.9870 ca         1 IOF      -0.138500
     21 F21          0.3510    -1.4640    -6.3880 f          1 IOF      -0.152500
     22 F22          1.7940     0.7910    -6.0450 f          1 IOF      -0.140000
     23 F23          1.4720     2.2610    -3.8120 f          1 IOF      -0.152500
     24 H011        -3.0110     0.3700     2.5990 ha         1 IOF       0.130000
     25 H021        -1.8810     0.4730     4.7750 ha         1 IOF       0.142500
     26 H041         1.9100    -0.0440     2.8130 ha         1 IOF       0.142500
     27 H051         0.7830    -0.1540     0.6570 ha         1 IOF       0.130000
     28 H091        -0.5960    -1.3020    -0.5550 hn         1 IOF       0.321500
     29 H101        -2.2170    -1.8480    -2.3210 h1         1 IOF       0.073700
     30 H102        -2.7880    -0.1950    -2.1970 h1         1 IOF       0.073700
     31 HP21         2.1640    -1.3400     6.3330 hn         1 IOF       0.477500
     32 HP22         0.6020    -1.8450     6.0320 hn         1 IOF       0.477500
     33 H161        -1.2850    -2.0690    -4.4660 ha         1 IOF       0.143500
     34 H201        -0.2510     1.3750    -2.0990 ha         1 IOF       0.143500
@<TRIPOS>BOND
     1     1     2 ar  
     2     1     6 ar  
     3     1    24 1   
     4     2     3 ar  
     5     2    25 1   
     6     3     4 ar  
     7     3    11 1   
     8     4     5 ar  
     9     4    26 1   
    10     5     6 ar  
    11     5    27 1   
    12     6     7 1   
    13     7     8 2   
    14     7     9 1   
    15     9    10 1   
    16     9    28 1   
    17    10    15 1   
    18    10    29 1   
    19    10    30 1   
    20    11    12 1   
    21    11    13 2   
    22    11    14 2   
    23    12    31 1   
    24    12    32 1   
    25    15    16 ar  
    26    15    20 ar  
    27    16    17 ar  
    28    16    33 1   
    29    17    18 ar  
    30    17    21 1   
    31    18    19 ar  
    32    18    22 1   
    33    19    20 ar  
    34    19    23 1   
    35    20    34 1   
@<TRIPOS>SUBSTRUCTURE
     1 IOF         1 TEMP              0 ****  ****    0 ROOT
