@<TRIPOS>MOLECULE
IOF
   34    35     1     0     0
SMALL
No Charge or Current Charge


@<TRIPOS>ATOM
      1 C01         -2.0230    -0.0680     2.8050 ca         1 IOF      -0.096000
      2 C02         -1.3240    -0.0480     4.0240 ca         1 IOF      -0.017500
      3 C03          0.0830     0.0000     4.0320 ca         1 IOF      -0.249500
      4 C04          0.7830     0.0240     2.8100 ca         1 IOF      -0.017500
      5 C05          0.0820     0.0030     1.5910 ca         1 IOF      -0.096000
      6 C06         -1.3340    -0.0420     1.5700 ca         1 IOF      -0.101600
      7 C07         -2.1260    -0.0650     0.2750 c          1 IOF       0.609700
      8 O08         -3.3490    -0.1060     0.2560 o          1 IOF      -0.584100
      9 N09         -1.4030    -0.0370    -0.8980 ns         1 IOF      -0.505900
     10 C10         -1.9990    -0.0540    -2.2320 c3         1 IOF       0.142300
     11 S11          0.9800     0.0260     5.5910 sy         1 IOF       1.127600
     12 NP2          1.2170    -1.5570     5.9080 n8         1 IOF      -1.011100
     13 O13          0.1170     0.4670     6.6840 o          1 IOF      -0.539500
     14 O14          2.3330     0.5440     5.4070 o          1 IOF      -0.539500
     15 C15         -0.9250    -0.0150    -3.3090 ca         1 IOF      -0.071300
     16 C16         -0.3780    -1.2130    -3.8120 ca         1 IOF      -0.138500
     17 C17          0.6180    -1.1760    -4.8030 ca         1 IOF       0.162000
     18 C18          1.0790     0.0570    -5.3000 ca         1 IOF       0.091000
     19 C19          0.5370     1.2530    -4.7970 ca         1 IOF       0.162000
     20 C20         -0.4600     1.2190    -3.8060 ca         1 IOF      -0.138500
     21 F21          1.1320    -2.3350    -5.2740 f          1 IOF      -0.152500
     22 F22          2.0400     0.0910    -6.2540 f          1 IOF      -0.140000
     23 F23          0.9710     2.4460    -5.2630 f          1 IOF      -0.152500
     24 H011        -3.1100    -0.1050     2.8250 ha         1 IOF       0.130000
     25 H021        -1.8820    -0.0710     4.9600 ha         1 IOF       0.142500
     26 H041         1.8720     0.0560     2.7990 ha         1 IOF       0.142500
     27 H051         0.6610     0.0230     0.6720 ha         1 IOF       0.130000
     28 H091        -0.3960    -0.0040    -0.8220 hn         1 IOF       0.321500
     29 H101        -2.6060    -0.9620    -2.3440 h1         1 IOF       0.073700
     30 H102        -2.6650     0.8130    -2.3390 h1         1 IOF       0.073700
     31 HP21         2.2220    -1.5610     6.0710 hn         1 IOF       0.477500
     32 HP22         0.8500    -1.6090     6.8550 hn         1 IOF       0.477500
     33 H161        -0.7220    -2.1740    -3.4360 ha         1 IOF       0.143500
     34 H201        -0.8670     2.1530    -3.4260 ha         1 IOF       0.143500
@<TRIPOS>BOND
     1     1     2 ar  
     2     1     6 ar  
     3     1    24 1   
     4     2     3 ar  
     5     2    25 1   
     6     3     4 ar  
     7     3    11 1   
     8     4     5 ar  
     9     4    26 1   
    10     5     6 ar  
    11     5    27 1   
    12     6     7 1   
    13     7     8 2   
    14     7     9 1   
    15     9    10 1   
    16     9    28 1   
    17    10    15 1   
    18    10    29 1   
    19    10    30 1   
    20    11    12 1   
    21    11    13 2   
    22    11    14 2   
    23    12    31 1   
    24    12    32 1   
    25    15    16 ar  
    26    15    20 ar  
    27    16    17 ar  
    28    16    33 1   
    29    17    18 ar  
    30    17    21 1   
    31    18    19 ar  
    32    18    22 1   
    33    19    20 ar  
    34    19    23 1   
    35    20    34 1   
@<TRIPOS>SUBSTRUCTURE
     1 IOF         1 TEMP              0 ****  ****    0 ROOT
