@<TRIPOS>MOLECULE
IOG
   78    82     1     0     0
SMALL
No Charge or Current Charge


@<TRIPOS>ATOM
      1 C1           9.3700     4.7340     3.9220 ca         1 IOG      -0.114300
      2 C2           9.9760     3.4680     4.0610 ca         1 IOG      -0.070000
      3 C3          10.7520     3.1700     5.1950 ca         1 IOG      -0.175000
      4 C4          10.9260     4.1350     6.1990 ca         1 IOG       0.134100
      5 O5          11.6770     3.8540     7.3010 oh         1 IOG      -0.534100
      6 C6          10.3240     5.3940     6.0720 ca         1 IOG      -0.175000
      7 C7           9.5460     5.6940     4.9390 ca         1 IOG      -0.070000
      8 C8           8.5110     5.0660     2.7030 c3         1 IOG      -0.026100
      9 C9           9.1860     4.7290     1.3500 c3         1 IOG      -0.087400
     10 C10          8.4370     5.2740     0.1090 c3         1 IOG       0.111700
     11 C11          9.2000     4.9870    -1.1980 c3         1 IOG      -0.109100
     12 N12          7.0800     4.7310     0.0140 ns         1 IOG      -0.507900
     13 C13          5.9350     5.3750     0.4350 c          1 IOG       0.602100
     14 O14          5.9600     6.5030     0.9080 o          1 IOG      -0.600100
     15 C15          4.6260     4.5920     0.2520 c3         1 IOG      -0.083200
     16 C16          3.9700     4.1910     1.5610 cc         1 IOG      -0.100400
     17 C17          4.4500     3.3740     2.6040 cd         1 IOG      -0.019300
     18 N18          3.5380     3.4370     3.6870 na         1 IOG      -0.216700
     19 C19          2.5210     4.2820     3.3080 ca         1 IOG      -0.003200
     20 C20          1.3980     4.6460     4.0600 ca         1 IOG      -0.234000
     21 C21          0.4640     5.5350     3.4760 ca         1 IOG       0.173100
     22 C22          0.6830     6.0240     2.1700 ca         1 IOG      -0.170000
     23 C23          1.8250     5.6370     1.4390 ca         1 IOG      -0.011000
     24 C24          2.7330     4.7530     2.0480 ca         1 IOG      -0.121800
     25 C25          5.6370     2.4800     2.6530 ca         1 IOG      -0.033800
     26 C26          6.1430     2.0730     3.9110 ca         1 IOG      -0.103500
     27 C27          7.2610     1.2260     4.0050 ca         1 IOG      -0.109000
     28 C28          7.8870     0.7550     2.8430 ca         1 IOG      -0.109000
     29 C29          7.3900     1.1320     1.5880 ca         1 IOG      -0.109000
     30 C30          6.2730     1.9810     1.4950 ca         1 IOG      -0.103500
     31 O31         -0.6730     5.9520     4.1370 os         1 IOG      -0.352100
     32 C32         -0.9850     5.5120     5.4720 c3         1 IOG       0.161600
     33 C33         -2.3230     6.1690     5.8950 c3         1 IOG       0.165800
     34 N34         -2.8690     5.7270     7.2110 n3         1 IOG      -0.727600
     35 C35         -1.9790     6.0570     8.3640 c6         1 IOG       0.170300
     36 C36         -2.5350     5.4950     9.6970 c6         1 IOG      -0.075400
     37 C37         -3.9740     5.9940     9.9570 c6         1 IOG      -0.075400
     38 C38         -4.8700     5.6800     8.7380 c6         1 IOG      -0.075400
     39 C39         -4.2510     6.2410     7.4340 c6         1 IOG       0.170300
     40 H2           9.8460     2.7100     3.2940 ha         1 IOG       0.113000
     41 H3          11.2120     2.1890     5.2850 ha         1 IOG       0.119000
     42 HO5         12.0170     2.9370     7.2190 ho         1 IOG       0.463000
     43 H6          10.4570     6.1410     6.8510 ha         1 IOG       0.119000
     44 H7           9.0810     6.6740     4.8550 ha         1 IOG       0.113000
     45 H81          7.5590     4.5290     2.7750 hc         1 IOG       0.054200
     46 H82          8.2570     6.1340     2.7060 hc         1 IOG       0.054200
     47 H91          9.2890     3.6420     1.2530 hc         1 IOG       0.046200
     48 H92         10.2010     5.1450     1.3560 hc         1 IOG       0.046200
     49 H10          8.3710     6.3670     0.2090 h1         1 IOG       0.078700
     50 H111         9.3070     3.9070    -1.3600 hc         1 IOG       0.041033
     51 H112         8.6680     5.4140    -2.0570 hc         1 IOG       0.041033
     52 H113        10.2020     5.4310    -1.1660 hc         1 IOG       0.041033
     53 HN12         6.9650     3.8040    -0.3740 hn         1 IOG       0.307500
     54 H151         4.7790     3.7170    -0.3840 hc         1 IOG       0.060200
     55 H152         3.9500     5.2540    -0.2970 hc         1 IOG       0.060200
     56 HN18         3.6000     2.9250     4.5580 hn         1 IOG       0.349000
     57 H20          1.2670     4.2460     5.0610 ha         1 IOG       0.119000
     58 H22         -0.0360     6.7060     1.7250 ha         1 IOG       0.126000
     59 H23          1.9850     6.0180     0.4340 ha         1 IOG       0.124000
     60 H26          5.6910     2.4320     4.8310 ha         1 IOG       0.117500
     61 H27          7.6420     0.9370     4.9820 ha         1 IOG       0.116500
     62 H28          8.7510     0.0970     2.9150 ha         1 IOG       0.114000
     63 H29          7.8620     0.7540     0.6830 ha         1 IOG       0.116500
     64 H30          5.8860     2.1940     0.5100 ha         1 IOG       0.117500
     65 H321        -1.0940     4.4200     5.5030 h1         1 IOG       0.040200
     66 H322        -0.1890     5.8070     6.1670 h1         1 IOG       0.040200
     67 H331        -2.1850     7.2590     5.8970 h1         1 IOG       0.045700
     68 H332        -3.0560     5.9430     5.1090 h1         1 IOG       0.045700
     69 H351        -1.8650     7.1480     8.4550 h1         1 IOG       0.030450
     70 H352        -0.9740     5.6380     8.2140 h1         1 IOG       0.030450
     71 H361        -1.8790     5.7900    10.5270 hc         1 IOG       0.045950
     72 H362        -2.5230     4.3970     9.6620 hc         1 IOG       0.045950
     73 H371        -4.3820     5.5210    10.8600 hc         1 IOG       0.039200
     74 H372        -3.9630     7.0770    10.1410 hc         1 IOG       0.039200
     75 H381        -5.0020     4.5940     8.6420 hc         1 IOG       0.045950
     76 H382        -5.8710     6.1060     8.8870 hc         1 IOG       0.045950
     77 H391        -4.9010     5.9640     6.5910 h1         1 IOG       0.030450
     78 H392        -4.2420     7.3410     7.4860 h1         1 IOG       0.030450
@<TRIPOS>BOND
     1     1     2 ar  
     2     1     7 ar  
     3     1     8 1   
     4     2     3 ar  
     5     2    40 1   
     6     3     4 ar  
     7     3    41 1   
     8     4     5 1   
     9     4     6 ar  
    10     5    42 1   
    11     6     7 ar  
    12     6    43 1   
    13     7    44 1   
    14     8     9 1   
    15     8    45 1   
    16     8    46 1   
    17     9    10 1   
    18     9    47 1   
    19     9    48 1   
    20    10    11 1   
    21    10    12 1   
    22    10    49 1   
    23    11    50 1   
    24    11    51 1   
    25    11    52 1   
    26    12    13 1   
    27    12    53 1   
    28    13    14 2   
    29    13    15 1   
    30    15    16 1   
    31    15    54 1   
    32    15    55 1   
    33    16    17 2   
    34    16    24 1   
    35    17    18 1   
    36    17    25 1   
    37    18    19 1   
    38    18    56 1   
    39    19    20 ar  
    40    19    24 ar  
    41    20    21 ar  
    42    20    57 1   
    43    21    22 ar  
    44    21    31 1   
    45    22    23 ar  
    46    22    58 1   
    47    23    24 ar  
    48    23    59 1   
    49    25    26 ar  
    50    25    30 ar  
    51    26    27 ar  
    52    26    60 1   
    53    27    28 ar  
    54    27    61 1   
    55    28    29 ar  
    56    28    62 1   
    57    29    30 ar  
    58    29    63 1   
    59    30    64 1   
    60    31    32 1   
    61    32    33 1   
    62    32    65 1   
    63    32    66 1   
    64    33    34 1   
    65    33    67 1   
    66    33    68 1   
    67    34    35 1   
    68    34    39 1   
    69    35    36 1   
    70    35    69 1   
    71    35    70 1   
    72    36    37 1   
    73    36    71 1   
    74    36    72 1   
    75    37    38 1   
    76    37    73 1   
    77    37    74 1   
    78    38    39 1   
    79    38    75 1   
    80    38    76 1   
    81    39    77 1   
    82    39    78 1   
@<TRIPOS>SUBSTRUCTURE
     1 IOG         1 TEMP              0 ****  ****    0 ROOT
