@<TRIPOS>MOLECULE
IOG
   78    82     1     0     0
SMALL
bcc


@<TRIPOS>ATOM
      1 C1          10.0350     4.3550     3.6720 ca         1 IOG      -0.114300
      2 C2          10.4710     3.0610     3.4010 ca         1 IOG      -0.088000
      3 C3          11.6120     2.5390     3.9900 ca         1 IOG      -0.193000
      4 C4          12.3540     3.3150     4.8780 ca         1 IOG       0.134100
      5 O5          13.4700     2.8580     5.4870 oh         1 IOG      -0.495100
      6 C6          11.9370     4.6120     5.1590 ca         1 IOG      -0.193000
      7 C7          10.7920     5.1160     4.5580 ca         1 IOG      -0.088000
      8 C8           8.8120     4.9130     2.9980 c3         1 IOG      -0.026100
      9 C9           9.1160     5.4090     1.5830 c3         1 IOG      -0.087400
     10 C10          7.9100     6.0150     0.8710 c3         1 IOG       0.111700
     11 C11          8.2970     6.5900    -0.4870 c3         1 IOG      -0.109100
     12 N12          6.8710     5.0080     0.7380 ns         1 IOG      -0.574900
     13 C13          5.5550     5.2670     0.7640 c          1 IOG       0.669100
     14 O14          5.0890     6.3860     0.9260 o          1 IOG      -0.600100
     15 C15          4.6590     4.0480     0.6160 c3         1 IOG      -0.083200
     16 C16          3.8880     3.8200     1.8760 cc         1 IOG      -0.100400
     17 C17          4.2620     3.0860     2.9750 cd         1 IOG      -0.019300
     18 N18          3.3130     3.2460     3.9610 na         1 IOG      -0.166400
     19 C19          2.3150     4.0580     3.5170 ca         1 IOG      -0.003200
     20 C20          1.1480     4.4720     4.1650 ca         1 IOG      -0.252000
     21 C21          0.3150     5.3300     3.4690 ca         1 IOG       0.173100
     22 C22          0.6400     5.7570     2.1620 ca         1 IOG      -0.188000
     23 C23          1.7920     5.3330     1.5390 ca         1 IOG      -0.029000
     24 C24          2.6510     4.4560     2.2110 ca         1 IOG      -0.121800
     25 C25          5.4660     2.2950     3.2360 ca         1 IOG      -0.033800
     26 C26          6.1350     2.4210     4.4570 ca         1 IOG      -0.121500
     27 C27          7.2780     1.6820     4.7180 ca         1 IOG      -0.127000
     28 C28          7.7760     0.8050     3.7630 ca         1 IOG      -0.127000
     29 C29          7.1180     0.6690     2.5480 ca         1 IOG      -0.127000
     30 C30          5.9690     1.4020     2.2880 ca         1 IOG      -0.121500
     31 O31         -0.8420     5.8230     3.9620 os         1 IOG      -0.328900
     32 C32         -1.2290     5.4650     5.2750 c3         1 IOG       0.138400
     33 C33         -2.5310     6.1880     5.5770 c3         1 IOG       0.165800
     34 N34         -3.0140     5.8620     6.9050 n3         1 IOG      -0.727600
     35 C35         -2.3210     6.6110     7.9420 c6         1 IOG       0.170300
     36 C36         -2.7480     6.1630     9.3320 c6         1 IOG      -0.075400
     37 C37         -4.2570     6.2900     9.4990 c6         1 IOG      -0.075400
     38 C38         -4.9650     5.5590     8.3670 c6         1 IOG      -0.075400
     39 C39         -4.4550     6.0290     7.0130 c6         1 IOG       0.170300
     40 H2           9.9020     2.4380     2.7220 ha         1 IOG       0.131000
     41 H3          11.9200     1.5250     3.7620 ha         1 IOG       0.137000
     42 HO5         13.6400     1.9460     5.2270 ho         1 IOG       0.424000
     43 H6          12.5040     5.2220     5.8520 ha         1 IOG       0.137000
     44 H7          10.4830     6.1290     4.7920 ha         1 IOG       0.131000
     45 H81          8.0330     4.1480     2.9640 hc         1 IOG       0.054200
     46 H82          8.4070     5.7390     3.5880 hc         1 IOG       0.054200
     47 H91          9.5170     4.5870     0.9800 hc         1 IOG       0.046200
     48 H92          9.9030     6.1670     1.6270 hc         1 IOG       0.046200
     49 H10          7.5060     6.8170     1.4930 h1         1 IOG       0.078700
     50 H111         8.7190     5.8150    -1.1310 hc         1 IOG       0.041033
     51 H112         7.4320     7.0190    -0.9930 hc         1 IOG       0.041033
     52 H113         9.0440     7.3760    -0.3720 hc         1 IOG       0.041033
     53 HN12         7.1660     4.0640     0.5440 hn         1 IOG       0.307500
     54 H151         5.2330     3.1670     0.3310 hc         1 IOG       0.060200
     55 H152         3.9680     4.2390    -0.2080 hc         1 IOG       0.060200
     56 HN18         3.3010     2.7330     4.8270 hn         1 IOG       0.298700
     57 H20          0.9300     4.1290     5.1680 ha         1 IOG       0.137000
     58 H22         -0.0350     6.4350     1.6550 ha         1 IOG       0.144000
     59 H23          2.0250     5.6810     0.5410 ha         1 IOG       0.142000
     60 H26          5.7700     3.1170     5.2030 ha         1 IOG       0.135500
     61 H27          7.7880     1.8000     5.6650 ha         1 IOG       0.134500
     62 H28          8.6720     0.2330     3.9640 ha         1 IOG       0.132000
     63 H29          7.4920    -0.0200     1.8020 ha         1 IOG       0.134500
     64 H30          5.4470     1.2550     1.3520 ha         1 IOG       0.135500
     65 H321        -1.3800     4.3830     5.3560 h1         1 IOG       0.040200
     66 H322        -0.4440     5.7430     5.9870 h1         1 IOG       0.040200
     67 H331        -2.3980     7.2720     5.4370 h1         1 IOG       0.045700
     68 H332        -3.2770     5.8660     4.8470 h1         1 IOG       0.045700
     69 H351        -2.5040     7.6960     7.8340 h1         1 IOG       0.030450
     70 H352        -1.2440     6.4680     7.8360 h1         1 IOG       0.030450
     71 H361        -2.2210     6.7600    10.0790 hc         1 IOG       0.045950
     72 H362        -2.4450     5.1230     9.4820 hc         1 IOG       0.045950
     73 H371        -4.5730     5.9000    10.4690 hc         1 IOG       0.039200
     74 H372        -4.5360     7.3490     9.4790 hc         1 IOG       0.039200
     75 H381        -4.7940     4.4810     8.4590 hc         1 IOG       0.045950
     76 H382        -6.0450     5.7140     8.4170 hc         1 IOG       0.045950
     77 H391        -4.9320     5.4520     6.2180 h1         1 IOG       0.030450
     78 H392        -4.7520     7.0830     6.8610 h1         1 IOG       0.030450
@<TRIPOS>BOND
     1     1     2 ar  
     2     1     7 ar  
     3     1     8 1   
     4     2     3 ar  
     5     2    40 1   
     6     3     4 ar  
     7     3    41 1   
     8     4     5 1   
     9     4     6 ar  
    10     5    42 1   
    11     6     7 ar  
    12     6    43 1   
    13     7    44 1   
    14     8     9 1   
    15     8    45 1   
    16     8    46 1   
    17     9    10 1   
    18     9    47 1   
    19     9    48 1   
    20    10    11 1   
    21    10    12 1   
    22    10    49 1   
    23    11    50 1   
    24    11    51 1   
    25    11    52 1   
    26    12    13 1   
    27    12    53 1   
    28    13    14 2   
    29    13    15 1   
    30    15    16 1   
    31    15    54 1   
    32    15    55 1   
    33    16    17 2   
    34    16    24 1   
    35    17    18 1   
    36    17    25 1   
    37    18    19 1   
    38    18    56 1   
    39    19    20 ar  
    40    19    24 ar  
    41    20    21 ar  
    42    20    57 1   
    43    21    22 ar  
    44    21    31 1   
    45    22    23 ar  
    46    22    58 1   
    47    23    24 ar  
    48    23    59 1   
    49    25    26 ar  
    50    25    30 ar  
    51    26    27 ar  
    52    26    60 1   
    53    27    28 ar  
    54    27    61 1   
    55    28    29 ar  
    56    28    62 1   
    57    29    30 ar  
    58    29    63 1   
    59    30    64 1   
    60    31    32 1   
    61    32    33 1   
    62    32    65 1   
    63    32    66 1   
    64    33    34 1   
    65    33    67 1   
    66    33    68 1   
    67    34    35 1   
    68    34    39 1   
    69    35    36 1   
    70    35    69 1   
    71    35    70 1   
    72    36    37 1   
    73    36    71 1   
    74    36    72 1   
    75    37    38 1   
    76    37    73 1   
    77    37    74 1   
    78    38    39 1   
    79    38    75 1   
    80    38    76 1   
    81    39    77 1   
    82    39    78 1   
@<TRIPOS>SUBSTRUCTURE
     1 IOG         1 TEMP              0 ****  ****    0 ROOT
