@<TRIPOS>MOLECULE
IOI
   58    61     1     0     0
SMALL
abcg2


@<TRIPOS>ATOM
      1 C10         93.9280   -11.5480    10.0360 cc         1 IOI       0.424500
      2 C13         94.0260   -13.0510     8.5240 cd         1 IOI       0.137400
      3 C15         93.5370   -14.0050     7.5270 ca         1 IOI       0.014200
      4 C16         94.4430   -14.6910     6.7120 ca         1 IOI      -0.191000
      5 C17         93.9890   -15.5920     5.7580 ca         1 IOI       0.135100
      6 C18         92.6180   -15.8180     5.6140 ca         1 IOI      -0.134000
      7 C19         91.7270   -15.1390     6.4230 ca         1 IOI      -0.084000
      8 C20         92.1730   -14.2320     7.3780 ca         1 IOI      -0.106000
      9 C22         96.1920   -16.0820     5.0040 c3         1 IOI       0.129600
     10 C24         94.6390    -8.0790    13.1550 c          1 IOI       0.650700
     11 C26         95.3650    -5.1860    13.7160 c3         1 IOI       0.069900
     12 C27         91.6450    -8.4730    14.5610 c          1 IOI       0.643700
     13 C1          93.7730    -7.1500    13.9270 cc         1 IOI      -0.170600
     14 C2          92.5560    -7.3060    14.5840 cd         1 IOI      -0.235600
     15 C3          92.3240    -6.0540    15.1700 cd         1 IOI       0.259900
     16 N4          93.2980    -5.2120    14.8980 nc         1 IOI      -0.508800
     17 N5          94.1720    -5.8810    14.1660 na         1 IOI       0.176800
     18 C6          94.4620    -9.9700    11.5800 cd         1 IOI       0.516900
     19 C7          95.8560   -10.2140    11.4040 cd         1 IOI      -0.211000
     20 C8          96.2270   -11.1520    10.4990 cc         1 IOI      -0.058000
     21 N9          93.5410   -10.6280    10.9230 nc         1 IOI      -0.683000
     22 N11         95.2720   -11.8130     9.8070 na         1 IOI      -0.083400
     23 C12         95.3350   -12.7770     8.8390 cc         1 IOI      -0.273100
     24 N14         93.1700   -12.2930     9.2690 nd         1 IOI      -0.270600
     25 O21         94.7950   -16.2860     4.9300 os         1 IOI      -0.340100
     26 N23         93.9600    -9.0190    12.4500 ns         1 IOI      -0.482400
     27 O25         95.8480    -7.9500    13.1650 o          1 IOI      -0.591100
     28 N28         91.0460    -8.8590    15.6940 n          1 IOI      -0.388800
     29 O29         91.4230    -9.0510    13.4920 o          1 IOI      -0.619100
     30 C30         90.0910    -9.9510    15.6040 c3         1 IOI       0.083300
     31 C31         91.4110    -8.4230    17.0370 c3         1 IOI       0.104000
     32 C32         90.3190    -7.6240    17.7280 c3         1 IOI      -0.110100
     33 C33         96.8520   -16.9150     3.9450 c3         1 IOI       0.186600
     34 F34         96.5130   -16.4500     2.6790 f          1 IOI      -0.259000
     35 H1          95.5020   -14.5070     6.8300 ha         1 IOI       0.108000
     36 H2          92.2660   -16.5210     4.8690 ha         1 IOI       0.128000
     37 H3          90.6650   -15.3170     6.3080 ha         1 IOI       0.117000
     38 H4          91.4640   -13.7070     8.0020 ha         1 IOI       0.142000
     39 H5          96.4460   -15.0250     4.8610 h1         1 IOI       0.043200
     40 H6          96.5880   -16.3900     5.9790 h1         1 IOI       0.043200
     41 H7          95.1990    -4.1280    13.8920 h1         1 IOI       0.070367
     42 H8          96.2400    -5.5120    14.2710 h1         1 IOI       0.070367
     43 H9          95.5300    -5.3470    12.6550 h1         1 IOI       0.070367
     44 H10         91.4730    -5.7320    15.7500 h4         1 IOI       0.048100
     45 H11         96.6090    -9.6840    11.9590 ha         1 IOI       0.169000
     46 H12         97.2580   -11.4050    10.2950 h4         1 IOI       0.147000
     47 H13         96.2760   -13.1620     8.4820 h4         1 IOI       0.230000
     48 H14         92.9380    -9.0240    12.5470 hn         1 IOI       0.394500
     49 H15         89.6170   -10.0840    16.5730 h1         1 IOI       0.047700
     50 H16         89.3120    -9.7360    14.8740 h1         1 IOI       0.047700
     51 H17         90.5770   -10.8870    15.3280 h1         1 IOI       0.047700
     52 H18         91.6400    -9.3170    17.6210 h1         1 IOI       0.053700
     53 H19         92.3340    -7.8490    16.9910 h1         1 IOI       0.053700
     54 H20         90.6480    -7.3430    18.7280 hc         1 IOI       0.043700
     55 H21         90.0750    -6.7130    17.1830 hc         1 IOI       0.043700
     56 H22         89.4010    -8.2030    17.8340 hc         1 IOI       0.043700
     57 H23         97.9340   -16.8500     4.0620 h1         1 IOI       0.053200
     58 H24         96.5520   -17.9620     4.0180 h1         1 IOI       0.053200
@<TRIPOS>BOND
     1     1    21 1   
     2     1    22 1   
     3     1    24 2   
     4     2     3 1   
     5     2    23 2   
     6     2    24 1   
     7     3     4 ar  
     8     3     8 ar  
     9     4     5 ar  
    10     4    35 1   
    11     5     6 ar  
    12     5    25 1   
    13     6     7 ar  
    14     6    36 1   
    15     7     8 ar  
    16     7    37 1   
    17     8    38 1   
    18     9    25 1   
    19     9    33 1   
    20     9    39 1   
    21     9    40 1   
    22    10    13 1   
    23    10    26 1   
    24    10    27 2   
    25    11    17 1   
    26    11    41 1   
    27    11    42 1   
    28    11    43 1   
    29    12    14 1   
    30    12    28 1   
    31    12    29 2   
    32    13    14 2   
    33    13    17 1   
    34    14    15 1   
    35    15    16 2   
    36    15    44 1   
    37    16    17 1   
    38    18    19 1   
    39    18    21 2   
    40    18    26 1   
    41    19    20 2   
    42    19    45 1   
    43    20    22 1   
    44    20    46 1   
    45    22    23 1   
    46    23    47 1   
    47    26    48 1   
    48    28    30 1   
    49    28    31 1   
    50    30    49 1   
    51    30    50 1   
    52    30    51 1   
    53    31    32 1   
    54    31    52 1   
    55    31    53 1   
    56    32    54 1   
    57    32    55 1   
    58    32    56 1   
    59    33    34 1   
    60    33    57 1   
    61    33    58 1   
@<TRIPOS>SUBSTRUCTURE
     1 IOI         1 TEMP              0 ****  ****    0 ROOT
