@<TRIPOS>MOLECULE
IOI
   58    61     1     0     0
SMALL
No Charge or Current Charge


@<TRIPOS>ATOM
      1 C10         93.8430   -11.3690     9.9370 cc         1 IOI       0.424500
      2 C13         93.9880   -12.9660     8.4690 cd         1 IOI       0.137400
      3 C15         93.5360   -14.0790     7.6030 ca         1 IOI       0.014200
      4 C16         94.4500   -14.7610     6.7690 ca         1 IOI      -0.191000
      5 C17         94.0180   -15.8230     5.9440 ca         1 IOI       0.135100
      6 C18         92.6690   -16.2040     5.9520 ca         1 IOI      -0.134000
      7 C19         91.7500   -15.5360     6.7750 ca         1 IOI      -0.084000
      8 C20         92.1810   -14.4800     7.5950 ca         1 IOI      -0.106000
      9 C22         96.2820   -16.2080     5.0270 c3         1 IOI       0.129600
     10 C24         94.5330    -7.6510    12.7480 c          1 IOI       0.650700
     11 C26         95.6200    -5.0990    14.2670 c3         1 IOI       0.069900
     12 C27         91.6470    -8.2770    14.3840 c          1 IOI       0.643700
     13 C1          93.8750    -6.9630    13.9130 cc         1 IOI      -0.170600
     14 C2          92.7120    -7.2550    14.6400 cd         1 IOI      -0.235600
     15 C3          92.6440    -6.2840    15.6640 cd         1 IOI       0.259900
     16 N4          93.6380    -5.4310    15.6580 nc         1 IOI      -0.508800
     17 N5          94.3880    -5.8420    14.5850 na         1 IOI       0.176800
     18 C6          94.3580    -9.6920    11.3380 cd         1 IOI       0.516900
     19 C7          95.7510    -9.8140    10.9370 cd         1 IOI      -0.211000
     20 C8          96.1770   -10.7310     9.9830 cc         1 IOI      -0.058000
     21 N9          93.4010   -10.4790    10.8740 nc         1 IOI      -0.683000
     22 N11         95.1210   -11.4740     9.4780 na         1 IOI      -0.083400
     23 C12         95.2780   -12.4790     8.5710 cc         1 IOI      -0.273100
     24 N14         93.1150   -12.2750     9.3130 nd         1 IOI      -0.270600
     25 O21         94.8760   -16.5170     5.1150 os         1 IOI      -0.340100
     26 N23         93.9500    -8.7970    12.2860 ns         1 IOI      -0.482400
     27 O25         95.5520    -7.2090    12.2420 o          1 IOI      -0.591100
     28 N28         90.8070    -8.6650    15.4620 n          1 IOI      -0.388800
     29 O29         91.4580    -8.7490    13.2740 o          1 IOI      -0.619100
     30 C30         89.6040    -9.4750    15.1510 c3         1 IOI       0.083300
     31 C31         91.3100    -8.7780    16.8580 c3         1 IOI       0.104000
     32 C32         90.4210    -8.0780    17.9080 c3         1 IOI      -0.110100
     33 C33         96.9400   -17.1700     4.0150 c3         1 IOI       0.186600
     34 F34         96.4430   -16.9710     2.7660 f          1 IOI      -0.259000
     35 H1          95.4920   -14.4600     6.7700 ha         1 IOI       0.108000
     36 H2          92.3350   -17.0220     5.3180 ha         1 IOI       0.128000
     37 H3          90.7040   -15.8350     6.7780 ha         1 IOI       0.117000
     38 H4          91.4520   -13.9750     8.2250 ha         1 IOI       0.142000
     39 H5          96.4350   -15.1730     4.6940 h1         1 IOI       0.043200
     40 H6          96.7660   -16.3350     6.0030 h1         1 IOI       0.043200
     41 H7          95.7510    -4.2660    14.9690 h1         1 IOI       0.070367
     42 H8          96.4830    -5.7700    14.3430 h1         1 IOI       0.070367
     43 H9          95.5540    -4.7000    13.2480 h1         1 IOI       0.070367
     44 H10         91.8650    -6.1440    16.3990 h4         1 IOI       0.048100
     45 H11         96.5100    -9.1970    11.3980 ha         1 IOI       0.169000
     46 H12         97.1860   -10.9030     9.6250 h4         1 IOI       0.147000
     47 H13         96.2160   -12.7510     8.1000 h4         1 IOI       0.230000
     48 H14         93.0200    -8.9510    12.6460 hn         1 IOI       0.394500
     49 H15         88.9920    -9.6320    16.0480 h1         1 IOI       0.047700
     50 H16         88.9940    -8.9580    14.3990 h1         1 IOI       0.047700
     51 H17         89.9070   -10.4530    14.7570 h1         1 IOI       0.047700
     52 H18         91.3590    -9.8450    17.1130 h1         1 IOI       0.053700
     53 H19         92.3380    -8.4080    16.9390 h1         1 IOI       0.053700
     54 H20         90.8920    -8.1340    18.8970 hc         1 IOI       0.043700
     55 H21         90.2650    -7.0230    17.6610 hc         1 IOI       0.043700
     56 H22         89.4390    -8.5590    17.9780 hc         1 IOI       0.043700
     57 H23         98.0230   -16.9960     3.9900 h1         1 IOI       0.053200
     58 H24         96.7570   -18.2100     4.3090 h1         1 IOI       0.053200
@<TRIPOS>BOND
     1     1    21 1   
     2     1    22 1   
     3     1    24 2   
     4     2     3 1   
     5     2    23 2   
     6     2    24 1   
     7     3     4 ar  
     8     3     8 ar  
     9     4     5 ar  
    10     4    35 1   
    11     5     6 ar  
    12     5    25 1   
    13     6     7 ar  
    14     6    36 1   
    15     7     8 ar  
    16     7    37 1   
    17     8    38 1   
    18     9    25 1   
    19     9    33 1   
    20     9    39 1   
    21     9    40 1   
    22    10    13 1   
    23    10    26 1   
    24    10    27 2   
    25    11    17 1   
    26    11    41 1   
    27    11    42 1   
    28    11    43 1   
    29    12    14 1   
    30    12    28 1   
    31    12    29 2   
    32    13    14 2   
    33    13    17 1   
    34    14    15 1   
    35    15    16 2   
    36    15    44 1   
    37    16    17 1   
    38    18    19 1   
    39    18    21 2   
    40    18    26 1   
    41    19    20 2   
    42    19    45 1   
    43    20    22 1   
    44    20    46 1   
    45    22    23 1   
    46    23    47 1   
    47    26    48 1   
    48    28    30 1   
    49    28    31 1   
    50    30    49 1   
    51    30    50 1   
    52    30    51 1   
    53    31    32 1   
    54    31    52 1   
    55    31    53 1   
    56    32    54 1   
    57    32    55 1   
    58    32    56 1   
    59    33    34 1   
    60    33    57 1   
    61    33    58 1   
@<TRIPOS>SUBSTRUCTURE
     1 IOI         1 TEMP              0 ****  ****    0 ROOT
