@<TRIPOS>MOLECULE
IOK
   56    59     1     0     0
SMALL
abcg2


@<TRIPOS>ATOM
      1 C1          -1.6310     6.6930     2.9850 ca         1 IOK      -0.115300
      2 C2          -0.8980     7.8760     2.9950 ca         1 IOK      -0.070500
      3 C3          -0.0390     8.2100     1.9580 ca         1 IOK      -0.175500
      4 C4           0.1070     7.3500     0.8730 ca         1 IOK       0.135100
      5 O5           0.9230     7.6210    -0.1690 oh         1 IOK      -0.534100
      6 C6          -0.6140     6.1590     0.8460 ca         1 IOK      -0.175500
      7 C7          -1.4680     5.8440     1.8920 ca         1 IOK      -0.070500
      8 C8          -2.5310     6.3300     4.1320 c3         1 IOK      -0.026100
      9 C9          -1.7740     5.6140     5.2510 c3         1 IOK      -0.087400
     10 C10         -2.6660     5.1460     6.3960 c3         1 IOK       0.111700
     11 C11         -1.8760     4.3620     7.4380 c3         1 IOK      -0.108100
     12 N12         -3.3400     6.2880     6.9900 ns         1 IOK      -0.506900
     13 C13         -4.5600     6.2330     7.5470 c          1 IOK       0.603100
     14 O14         -5.2250     5.2080     7.6090 o          1 IOK      -0.604100
     15 C15         -5.1010     7.5620     8.0460 c3         1 IOK      -0.082200
     16 C16         -6.1230     8.0790     7.0820 cc         1 IOK      -0.118400
     17 C17         -5.9380     8.9550     6.0370 cd         1 IOK      -0.008300
     18 N18         -7.1090     9.0630     5.3300 na         1 IOK      -0.214700
     19 C19         -8.0720     8.2880     5.9040 ca         1 IOK      -0.041200
     20 C20         -9.4090     8.1010     5.5580 ca         1 IOK      -0.135000
     21 C21        -10.1500     7.2310     6.3340 ca         1 IOK      -0.086000
     22 C22         -9.5770     6.5610     7.4290 ca         1 IOK      -0.144000
     23 C23         -8.2530     6.7510     7.7690 ca         1 IOK      -0.042000
     24 C24         -7.4810     7.6380     7.0080 ca         1 IOK      -0.088800
     25 C25         -4.7440     9.6770     5.5930 ca         1 IOK      -0.038800
     26 C26         -4.4230     9.7310     4.2340 ca         1 IOK      -0.103000
     27 C27         -3.2990    10.4160     3.8000 ca         1 IOK      -0.109500
     28 C28         -2.4700    11.0510     4.7170 ca         1 IOK      -0.110000
     29 C29         -2.7820    11.0060     6.0690 ca         1 IOK      -0.109500
     30 C30         -3.9140    10.3320     6.5040 ca         1 IOK      -0.103000
     31 H2          -1.0020     8.5610     3.8290 ha         1 IOK       0.113500
     32 H3           0.5140     9.1420     1.9960 ha         1 IOK       0.119000
     33 HO5          1.3530     8.4740    -0.0430 ho         1 IOK       0.463000
     34 H6          -0.5090     5.4840     0.0050 ha         1 IOK       0.119000
     35 H7          -2.0240     4.9150     1.8510 ha         1 IOK       0.113500
     36 H81         -3.0050     7.2340     4.5230 hc         1 IOK       0.053200
     37 H82         -3.3410     5.6860     3.7780 hc         1 IOK       0.053200
     38 H91         -0.9830     6.2650     5.6420 hc         1 IOK       0.046700
     39 H92         -1.2680     4.7360     4.8410 hc         1 IOK       0.046700
     40 H10         -3.4420     4.4980     5.9810 h1         1 IOK       0.076700
     41 H111        -1.0900     4.9810     7.8750 hc         1 IOK       0.041367
     42 H112        -2.5230     4.0140     8.2430 hc         1 IOK       0.041367
     43 H113        -1.4050     3.4890     6.9850 hc         1 IOK       0.041367
     44 HN12        -2.8240     7.1520     7.0440 hn         1 IOK       0.309500
     45 H151        -4.3000     8.2830     8.2010 hc         1 IOK       0.062200
     46 H152        -5.5630     7.3960     9.0220 hc         1 IOK       0.062200
     47 HN18        -7.2580     9.7080     4.5710 hn         1 IOK       0.350000
     48 H20         -9.8500     8.6120     4.7110 ha         1 IOK       0.112000
     49 H21        -11.1910     7.0590     6.0930 ha         1 IOK       0.109000
     50 H22        -10.1880     5.8800     8.0080 ha         1 IOK       0.112000
     51 H23         -7.8170     6.2210     8.6070 ha         1 IOK       0.126000
     52 H26         -5.0450     9.2180     3.5100 ha         1 IOK       0.119000
     53 H27         -3.0610    10.4420     2.7450 ha         1 IOK       0.117500
     54 H28         -1.5890    11.5810     4.3780 ha         1 IOK       0.115000
     55 H29         -2.1510    11.5100     6.7890 ha         1 IOK       0.117500
     56 H30         -4.1660    10.3390     7.5570 ha         1 IOK       0.119000
@<TRIPOS>BOND
     1     1     2 ar  
     2     1     7 ar  
     3     1     8 1   
     4     2     3 ar  
     5     2    31 1   
     6     3     4 ar  
     7     3    32 1   
     8     4     5 1   
     9     4     6 ar  
    10     5    33 1   
    11     6     7 ar  
    12     6    34 1   
    13     7    35 1   
    14     8     9 1   
    15     8    36 1   
    16     8    37 1   
    17     9    10 1   
    18     9    38 1   
    19     9    39 1   
    20    10    11 1   
    21    10    12 1   
    22    10    40 1   
    23    11    41 1   
    24    11    42 1   
    25    11    43 1   
    26    12    13 1   
    27    12    44 1   
    28    13    14 2   
    29    13    15 1   
    30    15    16 1   
    31    15    45 1   
    32    15    46 1   
    33    16    17 2   
    34    16    24 1   
    35    17    18 1   
    36    17    25 1   
    37    18    19 1   
    38    18    47 1   
    39    19    20 ar  
    40    19    24 ar  
    41    20    21 ar  
    42    20    48 1   
    43    21    22 ar  
    44    21    49 1   
    45    22    23 ar  
    46    22    50 1   
    47    23    24 ar  
    48    23    51 1   
    49    25    26 ar  
    50    25    30 ar  
    51    26    27 ar  
    52    26    52 1   
    53    27    28 ar  
    54    27    53 1   
    55    28    29 ar  
    56    28    54 1   
    57    29    30 ar  
    58    29    55 1   
    59    30    56 1   
@<TRIPOS>SUBSTRUCTURE
     1 IOK         1 TEMP              0 ****  ****    0 ROOT
