@<TRIPOS>MOLECULE
IOK
   56    59     1     0     0
SMALL
No Charge or Current Charge


@<TRIPOS>ATOM
      1 C1          -1.8740     6.6330     3.0740 ca         1 IOK      -0.115300
      2 C2          -1.0110     7.7440     2.9720 ca         1 IOK      -0.070500
      3 C3          -0.4620     8.1080     1.7290 ca         1 IOK      -0.175500
      4 C4          -0.7730     7.3650     0.5800 ca         1 IOK       0.135100
      5 O5          -0.2460     7.7100    -0.6270 oh         1 IOK      -0.534100
      6 C6          -1.6340     6.2610     0.6720 ca         1 IOK      -0.175500
      7 C7          -2.1840     5.8970     1.9130 ca         1 IOK      -0.070500
      8 C8          -2.4900     6.2360     4.4150 c3         1 IOK      -0.026100
      9 C9          -1.4620     6.1290     5.5690 c3         1 IOK      -0.087400
     10 C10         -2.0240     5.5000     6.8690 c3         1 IOK       0.111700
     11 C11         -0.9370     5.3360     7.9470 c3         1 IOK      -0.108100
     12 N12         -3.1390     6.2820     7.4090 ns         1 IOK      -0.506900
     13 C13         -4.4750     5.9950     7.2220 c          1 IOK       0.603100
     14 O14         -4.8480     5.0120     6.5940 o          1 IOK      -0.604100
     15 C15         -5.4640     6.9750     7.8720 c3         1 IOK      -0.082200
     16 C16         -6.2760     7.7770     6.8690 cc         1 IOK      -0.118400
     17 C17         -5.8520     8.6780     5.8720 cd         1 IOK      -0.008300
     18 N18         -6.9710     9.0400     5.0810 na         1 IOK      -0.214700
     19 C19         -8.0570     8.3660     5.5890 ca         1 IOK      -0.041200
     20 C20         -9.3800     8.4120     5.1270 ca         1 IOK      -0.135000
     21 C21        -10.3480     7.6370     5.7990 ca         1 IOK      -0.086000
     22 C22         -9.9750     6.8430     6.9070 ca         1 IOK      -0.144000
     23 C23         -8.6350     6.8180     7.3490 ca         1 IOK      -0.042000
     24 C24         -7.6930     7.6020     6.6580 ca         1 IOK      -0.088800
     25 C25         -4.5180     9.2930     5.6400 ca         1 IOK      -0.038800
     26 C26         -4.2220     9.8420     4.3690 ca         1 IOK      -0.103000
     27 C27         -2.9760    10.4360     4.1060 ca         1 IOK      -0.109500
     28 C28         -2.0040    10.5080     5.1140 ca         1 IOK      -0.110000
     29 C29         -2.2850     9.9870     6.3850 ca         1 IOK      -0.109500
     30 C30         -3.5310     9.3920     6.6460 ca         1 IOK      -0.103000
     31 H2          -0.7650     8.3320     3.8520 ha         1 IOK       0.113500
     32 H3           0.2010     8.9670     1.6680 ha         1 IOK       0.119000
     33 HO5          0.3270     8.4970    -0.5010 ho         1 IOK       0.463000
     34 H6          -1.8770     5.6870    -0.2190 ha         1 IOK       0.119000
     35 H7          -2.8540     5.0410     1.9690 ha         1 IOK       0.113500
     36 H81         -3.2630     6.9630     4.6860 hc         1 IOK       0.053200
     37 H82         -3.0030     5.2710     4.3180 hc         1 IOK       0.053200
     38 H91         -1.0650     7.1240     5.8000 hc         1 IOK       0.046700
     39 H92         -0.6160     5.5220     5.2250 hc         1 IOK       0.046700
     40 H10         -2.3890     4.4920     6.6240 h1         1 IOK       0.076700
     41 H111        -0.5230     6.3100     8.2380 hc         1 IOK       0.041367
     42 H112        -1.3520     4.8560     8.8420 hc         1 IOK       0.041367
     43 H113        -0.1170     4.7100     7.5770 hc         1 IOK       0.041367
     44 HN12        -2.9220     7.1080     7.9510 hn         1 IOK       0.309500
     45 H151        -4.9510     7.6420     8.5690 hc         1 IOK       0.062200
     46 H152        -6.1440     6.3670     8.4750 hc         1 IOK       0.062200
     47 HN18        -6.9780     9.7030     4.3160 hn         1 IOK       0.350000
     48 H20         -9.6550     9.0270     4.2740 ha         1 IOK       0.112000
     49 H21        -11.3830     7.6520     5.4640 ha         1 IOK       0.109000
     50 H22        -10.7250     6.2470     7.4230 ha         1 IOK       0.112000
     51 H23         -8.3520     6.2070     8.2020 ha         1 IOK       0.126000
     52 H26         -4.9470     9.7880     3.5610 ha         1 IOK       0.119000
     53 H27         -2.7640    10.8380     3.1180 ha         1 IOK       0.117500
     54 H28         -1.0400    10.9700     4.9130 ha         1 IOK       0.115000
     55 H29         -1.5410    10.0580     7.1750 ha         1 IOK       0.117500
     56 H30         -3.7280     9.0620     7.6550 ha         1 IOK       0.119000
@<TRIPOS>BOND
     1     1     2 ar  
     2     1     7 ar  
     3     1     8 1   
     4     2     3 ar  
     5     2    31 1   
     6     3     4 ar  
     7     3    32 1   
     8     4     5 1   
     9     4     6 ar  
    10     5    33 1   
    11     6     7 ar  
    12     6    34 1   
    13     7    35 1   
    14     8     9 1   
    15     8    36 1   
    16     8    37 1   
    17     9    10 1   
    18     9    38 1   
    19     9    39 1   
    20    10    11 1   
    21    10    12 1   
    22    10    40 1   
    23    11    41 1   
    24    11    42 1   
    25    11    43 1   
    26    12    13 1   
    27    12    44 1   
    28    13    14 2   
    29    13    15 1   
    30    15    16 1   
    31    15    45 1   
    32    15    46 1   
    33    16    17 2   
    34    16    24 1   
    35    17    18 1   
    36    17    25 1   
    37    18    19 1   
    38    18    47 1   
    39    19    20 ar  
    40    19    24 ar  
    41    20    21 ar  
    42    20    48 1   
    43    21    22 ar  
    44    21    49 1   
    45    22    23 ar  
    46    22    50 1   
    47    23    24 ar  
    48    23    51 1   
    49    25    26 ar  
    50    25    30 ar  
    51    26    27 ar  
    52    26    52 1   
    53    27    28 ar  
    54    27    53 1   
    55    28    29 ar  
    56    28    54 1   
    57    29    30 ar  
    58    29    55 1   
    59    30    56 1   
@<TRIPOS>SUBSTRUCTURE
     1 IOK         1 TEMP              0 ****  ****    0 ROOT
