@<TRIPOS>MOLECULE
IOL
   13    13     1     0     0
SMALL
No Charge or Current Charge


@<TRIPOS>ATOM
      1 C2           1.1890     0.0630     1.1680 ca         1 IOL      -0.039500
      2 C3           1.1040     0.1530     2.5710 ca         1 IOL      -0.180500
      3 C4          -0.1540     0.1580     3.1980 ca         1 IOL       0.156100
      4 O4          -0.2460     0.2440     4.5530 oh         1 IOL      -0.529100
      5 C5          -1.3240     0.0730     2.4280 ca         1 IOL      -0.180500
      6 C6          -1.2410    -0.0170     1.0250 ca         1 IOL      -0.039500
      7 C1           0.0160    -0.0220     0.3980 ca         1 IOL       0.155000
      8 I1           0.1470    -0.1610    -1.7600 i          1 IOL      -0.313000
      9 H2           2.1590     0.0590     0.6770 ha         1 IOL       0.127000
     10 H3           2.0160     0.2180     3.1590 ha         1 IOL       0.124500
     11 HO4          0.6610     0.2950     4.9240 ho         1 IOL       0.468000
     12 H5          -2.2960     0.0770     2.9150 ha         1 IOL       0.124500
     13 H6          -2.1460    -0.0830     0.4260 ha         1 IOL       0.127000
@<TRIPOS>BOND
     1     1     2 ar  
     2     1     7 ar  
     3     1     9 1   
     4     2     3 ar  
     5     2    10 1   
     6     3     4 1   
     7     3     5 ar  
     8     4    11 1   
     9     5     6 ar  
    10     5    12 1   
    11     6     7 ar  
    12     6    13 1   
    13     7     8 1   
@<TRIPOS>SUBSTRUCTURE
     1 IOL         1 TEMP              0 ****  ****    0 ROOT
