@<TRIPOS>MOLECULE
IOL
   13    13     1     0     0
SMALL
bcc


@<TRIPOS>ATOM
      1 C2           1.1810     0.0600     1.1600 ca         1 IOL      -0.057500
      2 C3           1.1040     0.1470     2.5420 ca         1 IOL      -0.198500
      3 C4          -0.1340     0.1530     3.1790 ca         1 IOL       0.156100
      4 O4          -0.2650     0.2360     4.5150 oh         1 IOL      -0.490100
      5 C5          -1.2970     0.0710     2.4160 ca         1 IOL      -0.198500
      6 C6          -1.2220    -0.0160     1.0360 ca         1 IOL      -0.057500
      7 C1           0.0180    -0.0210     0.4100 ca         1 IOL       0.017900
      8 I1           0.1300    -0.1500    -1.6860 i          1 IOL      -0.175900
      9 H2           2.1540     0.0580     0.6880 ha         1 IOL       0.145000
     10 H3           2.0190     0.2120     3.1200 ha         1 IOL       0.142500
     11 HO4          0.5990     0.3110     4.9370 ho         1 IOL       0.429000
     12 H5          -2.2640     0.0760     2.9030 ha         1 IOL       0.142500
     13 H6          -2.1370    -0.0800     0.4630 ha         1 IOL       0.145000
@<TRIPOS>BOND
     1     1     2 ar  
     2     1     7 ar  
     3     1     9 1   
     4     2     3 ar  
     5     2    10 1   
     6     3     4 1   
     7     3     5 ar  
     8     4    11 1   
     9     5     6 ar  
    10     5    12 1   
    11     6     7 ar  
    12     6    13 1   
    13     7     8 1   
@<TRIPOS>SUBSTRUCTURE
     1 IOL         1 TEMP              0 ****  ****    0 ROOT
