@<TRIPOS>MOLECULE
IOM
   19    18     1     0     0
SMALL
No Charge or Current Charge


@<TRIPOS>ATOM
      1 NA          -1.4810     0.3550    -2.1820 n8         1 IOM      -1.037200
      2 CA          -0.6290    -0.5660    -1.6460 c3         1 IOM       0.623900
      3 NB           0.2060    -0.5990    -2.7280 n8         1 IOM      -1.037200
      4 NC           0.1570    -0.0220    -0.5730 n3         1 IOM      -0.736600
      5 CB           0.6710     1.3780    -0.6890 c3         1 IOM       0.180100
      6 CC          -0.4740    -0.2900     0.7660 c3         1 IOM       0.031800
      7 CD           0.3660    -0.0280     2.0710 c          1 IOM       0.719000
      8 O1           1.1600    -0.8860     2.4390 o          1 IOM      -0.729000
      9 O2           0.1820     1.0160     2.6870 o          1 IOM      -0.729000
     10 HNA1        -0.9430     1.2090    -2.1080 hn         1 IOM       0.400000
     11 HNA2        -1.3900     0.1400    -3.1730 hn         1 IOM       0.400000
     12 HCA         -1.1100    -1.5430    -1.4950 h3         1 IOM       0.037700
     13 HNB1         1.0140    -0.0840    -2.3850 hn         1 IOM       0.400000
     14 HNB2         0.5450    -1.5600    -2.7850 hn         1 IOM       0.400000
     15 HCB1         1.1870     1.5510    -1.6430 h1         1 IOM       0.019367
     16 HCB2        -0.1440     2.1090    -0.6010 h1         1 IOM       0.019367
     17 HCB3         1.3950     1.5880     0.1100 h1         1 IOM       0.019367
     18 HCC1        -1.3960     0.3010     0.8520 h1         1 IOM       0.008700
     19 HCC2        -0.7840    -1.3430     0.8070 h1         1 IOM       0.008700
@<TRIPOS>BOND
     1     1     2 1   
     2     1    10 1   
     3     1    11 1   
     4     2     3 1   
     5     2     4 1   
     6     2    12 1   
     7     3    13 1   
     8     3    14 1   
     9     4     5 1   
    10     4     6 1   
    11     5    15 1   
    12     5    16 1   
    13     5    17 1   
    14     6     7 1   
    15     6    18 1   
    16     6    19 1   
    17     7     8 1   
    18     7     9 1   
@<TRIPOS>SUBSTRUCTURE
     1 IOM         1 TEMP              0 ****  ****    0 ROOT
