@<TRIPOS>MOLECULE
IOM
   19    18     1     0     0
SMALL
bcc


@<TRIPOS>ATOM
      1 NA          -1.3040     0.4930    -2.2620 n8         1 IOM      -0.926800
      2 CA          -0.3450    -0.4620    -1.7290 c3         1 IOM       0.623900
      3 NB           0.6000    -0.7350    -2.7820 n8         1 IOM      -0.926800
      4 NC           0.2550    -0.0040    -0.4860 n3         1 IOM      -0.736600
      5 CB           0.9260     1.2740    -0.5660 c3         1 IOM       0.180100
      6 CC          -0.6460    -0.0670     0.6410 c3         1 IOM       0.031800
      7 CD           0.0300    -0.1610     2.0270 c          1 IOM       0.929600
      8 O1           1.2330    -0.4670     2.0840 o          1 IOM      -0.834300
      9 O2          -0.7330     0.0550     2.9930 o          1 IOM      -0.834300
     10 HNA1        -1.7620     0.0900    -3.0700 hn         1 IOM       0.344800
     11 HNA2        -2.0330     0.6600    -1.5800 hn         1 IOM       0.344800
     12 HCA         -0.8140    -1.4240    -1.4710 h3         1 IOM       0.037700
     13 HNB1         1.0200     0.1260    -3.1120 hn         1 IOM       0.344800
     14 HNB2         1.3480    -1.3160    -2.4260 hn         1 IOM       0.344800
     15 HCB1         1.6100     1.2990    -1.4150 h1         1 IOM       0.019367
     16 HCB2         0.2430     2.1300    -0.6610 h1         1 IOM       0.019367
     17 HCB3         1.5240     1.4210     0.3320 h1         1 IOM       0.019367
     18 HCC1        -1.3540     0.7790     0.6680 h1         1 IOM       0.008700
     19 HCC2        -1.2660    -0.9670     0.5390 h1         1 IOM       0.008700
@<TRIPOS>BOND
     1     1     2 1   
     2     1    10 1   
     3     1    11 1   
     4     2     3 1   
     5     2     4 1   
     6     2    12 1   
     7     3    13 1   
     8     3    14 1   
     9     4     5 1   
    10     4     6 1   
    11     5    15 1   
    12     5    16 1   
    13     5    17 1   
    14     6     7 1   
    15     6    18 1   
    16     6    19 1   
    17     7     8 1   
    18     7     9 1   
@<TRIPOS>SUBSTRUCTURE
     1 IOM         1 TEMP              0 ****  ****    0 ROOT
