@<TRIPOS>MOLECULE
ION
   39    40     1     0     0
SMALL
abcg2


@<TRIPOS>ATOM
      1 C1           0.7150    -0.1360    -0.7350 c6         1 ION      -0.062400
      2 C2           0.3380     0.3160     0.6860 c6         1 ION       0.002200
      3 C3           1.1220    -0.5570     1.7090 c6         1 ION      -0.050700
      4 C4           2.6370    -0.4140     1.6020 c3         1 ION      -0.087100
      5 C5           0.6700    -0.3230     3.1490 c6         1 ION      -0.071400
      6 C6          -0.8230    -0.5610     3.3230 c6         1 ION      -0.070400
      7 C7          -1.6220     0.2950     2.3450 c6         1 ION      -0.037200
      8 C8          -1.1480     0.1040     0.9310 c2         1 ION      -0.107400
      9 C9           0.6720     1.8060     0.8510 c3         1 ION      -0.078100
     10 C10         -1.9970    -0.2440    -0.0370 c2         1 ION      -0.222200
     11 C11         -1.6360    -0.3990    -1.4820 c6         1 ION      -0.032200
     12 C12         -0.3070     0.2880    -1.7890 c6         1 ION      -0.026500
     13 C13          0.1730     0.0240    -3.1950 c2         1 ION      -0.108400
     14 C14          0.5750    -1.3780    -3.5500 c3         1 ION      -0.055900
     15 C15          0.2430     1.0100    -4.0880 c2         1 ION      -0.324000
     16 H11          0.8070    -1.2290    -0.7500 hc         1 ION       0.043200
     17 H12          1.7010     0.2590    -0.9940 hc         1 ION       0.043200
     18 H3           0.8730    -1.5980     1.4620 hc         1 ION       0.045700
     19 H41          3.1260    -1.1310     2.2630 hc         1 ION       0.032367
     20 H42          3.0040    -0.6020     0.5920 hc         1 ION       0.032367
     21 H43          2.9740     0.5810     1.9000 hc         1 ION       0.032367
     22 H51          1.2320    -0.9890     3.8100 hc         1 ION       0.038700
     23 H52          0.9210     0.6960     3.4630 hc         1 ION       0.038700
     24 H61         -1.0460    -1.6180     3.1430 hc         1 ION       0.039700
     25 H62         -1.1290    -0.3450     4.3490 hc         1 ION       0.039700
     26 H71         -2.6880     0.0680     2.4180 hc         1 ION       0.043200
     27 H72         -1.5140     1.3480     2.6320 hc         1 ION       0.043200
     28 H91          0.0970     2.4120     0.1500 hc         1 ION       0.033700
     29 H92          0.4540     2.1800     1.8520 hc         1 ION       0.033700
     30 H93          1.7290     1.9940     0.6530 hc         1 ION       0.033700
     31 H10         -3.0400    -0.4110     0.2200 ha         1 ION       0.168000
     32 H111        -1.5890    -1.4640    -1.7400 hc         1 ION       0.047700
     33 H112        -2.4300     0.0220    -2.1050 hc         1 ION       0.047700
     34 H121        -0.4710     1.3670    -1.6980 hc         1 ION       0.053700
     35 H141         0.8790    -1.4520    -4.5930 hc         1 ION       0.038700
     36 H142         1.4090    -1.7230    -2.9340 hc         1 ION       0.038700
     37 H143        -0.2410    -2.0860    -3.3920 hc         1 ION       0.038700
     38 H151         0.5840     0.8400    -5.1030 ha         1 ION       0.162000
     39 H152        -0.0370     2.0260    -3.8340 ha         1 ION       0.162000
@<TRIPOS>BOND
     1     1     2 1   
     2     1    12 1   
     3     1    16 1   
     4     1    17 1   
     5     2     3 1   
     6     2     8 1   
     7     2     9 1   
     8     3     4 1   
     9     3     5 1   
    10     3    18 1   
    11     4    19 1   
    12     4    20 1   
    13     4    21 1   
    14     5     6 1   
    15     5    22 1   
    16     5    23 1   
    17     6     7 1   
    18     6    24 1   
    19     6    25 1   
    20     7     8 1   
    21     7    26 1   
    22     7    27 1   
    23     8    10 2   
    24     9    28 1   
    25     9    29 1   
    26     9    30 1   
    27    10    11 1   
    28    10    31 1   
    29    11    12 1   
    30    11    32 1   
    31    11    33 1   
    32    12    13 1   
    33    12    34 1   
    34    13    14 1   
    35    13    15 2   
    36    14    35 1   
    37    14    36 1   
    38    14    37 1   
    39    15    38 1   
    40    15    39 1   
@<TRIPOS>SUBSTRUCTURE
     1 ION         1 TEMP              0 ****  ****    0 ROOT
