@<TRIPOS>MOLECULE
ION
   39    40     1     0     0
SMALL
No Charge or Current Charge


@<TRIPOS>ATOM
      1 C1           0.7310    -0.1690    -0.7470 c6         1 ION      -0.062400
      2 C2           0.3500     0.2990     0.7030 c6         1 ION       0.002200
      3 C3           1.1610    -0.5660     1.7510 c6         1 ION      -0.050700
      4 C4           2.7090    -0.3910     1.6700 c3         1 ION      -0.087100
      5 C5           0.6750    -0.3570     3.2130 c6         1 ION      -0.071400
      6 C6          -0.8390    -0.6270     3.3460 c6         1 ION      -0.070400
      7 C7          -1.6440     0.2660     2.3820 c6         1 ION      -0.037200
      8 C8          -1.1700     0.1140     0.9370 c2         1 ION      -0.107400
      9 C9           0.6570     1.8290     0.8540 c3         1 ION      -0.078100
     10 C10         -2.0480    -0.1420    -0.0530 c2         1 ION      -0.222200
     11 C11         -1.6750    -0.2820    -1.5210 c6         1 ION      -0.032200
     12 C12         -0.2770     0.3080    -1.8260 c6         1 ION      -0.026500
     13 C13          0.1750     0.0050    -3.2630 c2         1 ION      -0.108400
     14 C14          0.6250    -1.4180    -3.5670 c3         1 ION      -0.055900
     15 C15          0.1640     0.9630    -4.2040 c2         1 ION      -0.324000
     16 H11          0.7810    -1.2660    -0.7710 hc         1 ION       0.043200
     17 H12          1.7350     0.1890    -1.0110 hc         1 ION       0.043200
     18 H3           0.9820    -1.6250     1.5140 hc         1 ION       0.045700
     19 H41          3.2130    -1.0630     2.3750 hc         1 ION       0.032367
     20 H42          3.0990    -0.6270     0.6740 hc         1 ION       0.032367
     21 H43          3.0170     0.6310     1.9210 hc         1 ION       0.032367
     22 H51          1.2180    -1.0360     3.8850 hc         1 ION       0.038700
     23 H52          0.9070     0.6590     3.5590 hc         1 ION       0.038700
     24 H61         -1.0470    -1.6840     3.1290 hc         1 ION       0.039700
     25 H62         -1.1620    -0.4490     4.3800 hc         1 ION       0.039700
     26 H71         -2.7120     0.0230     2.4670 hc         1 ION       0.043200
     27 H72         -1.5510     1.3160     2.6920 hc         1 ION       0.043200
     28 H91         -0.0120     2.4390     0.2370 hc         1 ION       0.033700
     29 H92          0.5340     2.1790     1.8840 hc         1 ION       0.033700
     30 H93          1.6830     2.0690     0.5510 hc         1 ION       0.033700
     31 H10         -3.1110    -0.2550     0.1690 ha         1 ION       0.168000
     32 H111        -1.7150    -1.3450    -1.7920 hc         1 ION       0.047700
     33 H112        -2.4260     0.2250    -2.1430 hc         1 ION       0.047700
     34 H121        -0.3690     1.3980    -1.7390 hc         1 ION       0.053700
     35 H141         0.8600    -1.5450    -4.6300 hc         1 ION       0.038700
     36 H142         1.5300    -1.6820    -3.0070 hc         1 ION       0.038700
     37 H143        -0.1510    -2.1500    -3.3180 hc         1 ION       0.038700
     38 H151         0.4800     0.7640    -5.2290 ha         1 ION       0.162000
     39 H152        -0.1620     1.9810    -3.9890 ha         1 ION       0.162000
@<TRIPOS>BOND
     1     1     2 1   
     2     1    12 1   
     3     1    16 1   
     4     1    17 1   
     5     2     3 1   
     6     2     8 1   
     7     2     9 1   
     8     3     4 1   
     9     3     5 1   
    10     3    18 1   
    11     4    19 1   
    12     4    20 1   
    13     4    21 1   
    14     5     6 1   
    15     5    22 1   
    16     5    23 1   
    17     6     7 1   
    18     6    24 1   
    19     6    25 1   
    20     7     8 1   
    21     7    26 1   
    22     7    27 1   
    23     8    10 2   
    24     9    28 1   
    25     9    29 1   
    26     9    30 1   
    27    10    11 1   
    28    10    31 1   
    29    11    12 1   
    30    11    32 1   
    31    11    33 1   
    32    12    13 1   
    33    12    34 1   
    34    13    14 1   
    35    13    15 2   
    36    14    35 1   
    37    14    36 1   
    38    14    37 1   
    39    15    38 1   
    40    15    39 1   
@<TRIPOS>SUBSTRUCTURE
     1 ION         1 TEMP              0 ****  ****    0 ROOT
