@<TRIPOS>MOLECULE
IOP
   24    25     1     0     0
SMALL
abcg2


@<TRIPOS>ATOM
      1 C1           0.4790    -0.1340     3.5250 c          1 IOP       0.715000
      2 O1           0.1950     0.9810     4.0060 o          1 IOP      -0.742500
      3 O2           1.0530    -1.0700     4.1210 o          1 IOP      -0.742500
      4 C2           0.0890    -0.4080     2.0620 c3         1 IOP      -0.203400
      5 C3          -0.5510     0.7610     1.3190 c3         1 IOP       0.001800
      6 N1          -2.0200    -0.0950    -1.9650 na         1 IOP      -0.238700
      7 C8          -2.1200     0.2330    -0.6390 cc         1 IOP      -0.197100
      8 C9          -0.8800     0.4280    -0.1010 cd         1 IOP      -0.088400
      9 C3A          0.0490     0.2050    -1.1710 ca         1 IOP      -0.095800
     10 C4           1.4450     0.2550    -1.2680 ca         1 IOP      -0.035000
     11 C5           2.0440    -0.0160    -2.4830 ca         1 IOP      -0.167000
     12 C6           1.2740    -0.3410    -3.6130 ca         1 IOP      -0.101000
     13 C7          -0.1050    -0.3970    -3.5500 ca         1 IOP      -0.149000
     14 C7A         -0.7060    -0.1200    -2.3220 ca         1 IOP      -0.051200
     15 H2'1         0.9820    -0.7460     1.5260 hc         1 IOP       0.020700
     16 H2'2        -0.5940    -1.2650     2.0440 hc         1 IOP       0.020700
     17 H3'1        -1.4600     1.0720     1.8380 hc         1 IOP       0.048200
     18 H3'2         0.1230     1.6220     1.3490 hc         1 IOP       0.048200
     19 H4           2.0490     0.5020    -0.4040 ha         1 IOP       0.129000
     20 H5           3.1220     0.0190    -2.5700 ha         1 IOP       0.100000
     21 H6           1.7710    -0.5540    -4.5510 ha         1 IOP       0.092000
     22 H7          -0.6950    -0.6500    -4.4220 ha         1 IOP       0.096000
     23 HN1         -2.7990    -0.2790    -2.5750 hn         1 IOP       0.333000
     24 H2          -3.0880     0.3080    -0.1660 h4         1 IOP       0.205000
@<TRIPOS>BOND
     1     1     2 1   
     2     1     3 1   
     3     1     4 1   
     4     4     5 1   
     5     4    15 1   
     6     4    16 1   
     7     5     8 1   
     8     5    17 1   
     9     5    18 1   
    10     6     7 1   
    11     6    14 1   
    12     6    23 1   
    13     7     8 2   
    14     7    24 1   
    15     8     9 1   
    16     9    10 ar  
    17     9    14 ar  
    18    10    11 ar  
    19    10    19 1   
    20    11    12 ar  
    21    11    20 1   
    22    12    13 ar  
    23    12    21 1   
    24    13    14 ar  
    25    13    22 1   
@<TRIPOS>SUBSTRUCTURE
     1 IOP         1 TEMP              0 ****  ****    0 ROOT
