@<TRIPOS>MOLECULE
IOP
   24    25     1     0     0
SMALL
No Charge or Current Charge


@<TRIPOS>ATOM
      1 C1           0.3810    -0.1060     3.5310 c          1 IOP       0.715000
      2 O1          -0.4970    -0.0650     4.3790 o          1 IOP      -0.742500
      3 O2           1.5430     0.2050     3.7450 o          1 IOP      -0.742500
      4 C2          -0.0100    -0.5090     2.1010 c3         1 IOP      -0.203400
      5 C3          -0.4270     0.7440     1.2990 c3         1 IOP       0.001800
      6 N1          -2.0200     0.0120    -1.9560 na         1 IOP      -0.238700
      7 C8          -2.1350     0.3240    -0.5830 cc         1 IOP      -0.197100
      8 C9          -0.8270     0.4190    -0.1190 cd         1 IOP      -0.088400
      9 C3A          0.0880     0.1680    -1.2100 ca         1 IOP      -0.095800
     10 C4           1.4890     0.1470    -1.2660 ca         1 IOP      -0.035000
     11 C5           2.0890    -0.1380    -2.5130 ca         1 IOP      -0.167000
     12 C6           1.2880    -0.3910    -3.6540 ca         1 IOP      -0.101000
     13 C7          -0.1210    -0.3610    -3.5590 ca         1 IOP      -0.149000
     14 C7A         -0.6860    -0.0760    -2.3090 ca         1 IOP      -0.051200
     15 H2'1         0.8510    -0.9350     1.5710 hc         1 IOP       0.020700
     16 H2'2        -0.8900    -1.1640     2.1110 hc         1 IOP       0.020700
     17 H3'1        -1.2590     1.2410     1.8140 hc         1 IOP       0.048200
     18 H3'2         0.4020     1.4630     1.2930 hc         1 IOP       0.048200
     19 H4           2.0920     0.3430    -0.3830 ha         1 IOP       0.129000
     20 H5           3.1730    -0.1630    -2.5960 ha         1 IOP       0.100000
     21 H6           1.7600    -0.6100    -4.6090 ha         1 IOP       0.092000
     22 H7          -0.7450    -0.5540    -4.4280 ha         1 IOP       0.096000
     23 HN1         -2.7970    -0.1280    -2.5950 hn         1 IOP       0.333000
     24 H2          -3.0860     0.4460    -0.0740 h4         1 IOP       0.205000
@<TRIPOS>BOND
     1     1     2 1   
     2     1     3 1   
     3     1     4 1   
     4     4     5 1   
     5     4    15 1   
     6     4    16 1   
     7     5     8 1   
     8     5    17 1   
     9     5    18 1   
    10     6     7 1   
    11     6    14 1   
    12     6    23 1   
    13     7     8 2   
    14     7    24 1   
    15     8     9 1   
    16     9    10 ar  
    17     9    14 ar  
    18    10    11 ar  
    19    10    19 1   
    20    11    12 ar  
    21    11    20 1   
    22    12    13 ar  
    23    12    21 1   
    24    13    14 ar  
    25    13    22 1   
@<TRIPOS>SUBSTRUCTURE
     1 IOP         1 TEMP              0 ****  ****    0 ROOT
