@<TRIPOS>MOLECULE
IOQ
   37    41     1     0     0
SMALL
bcc


@<TRIPOS>ATOM
      1 C2         114.0010   119.2240   123.7690 ca         1 IOQ      -0.103000
      2 C10        116.3470   121.8740   125.2150 c5         1 IOQ       0.337700
      3 C5         116.6260   119.9840   123.8480 ca         1 IOQ      -0.193600
      4 C7         117.9320   120.6230   124.0610 c          1 IOQ       0.746200
      5 O8         119.0160   120.3050   123.6560 o          1 IOQ      -0.550500
      6 C1         114.9660   118.4790   123.0860 ca         1 IOQ      -0.133000
      7 C3         114.3420   120.3550   124.5000 ca         1 IOQ      -0.098000
      8 C4         115.6760   120.7180   124.5230 ca         1 IOQ      -0.099300
      9 C6         116.3000   118.8520   123.1170 ca         1 IOQ      -0.052000
     10 O9         117.7440   121.7050   124.8350 os         1 IOQ      -0.397900
     11 C11        115.8780   123.2100   124.7210 ca         1 IOQ      -0.188800
     12 C12        115.6600   123.4390   123.3640 ca         1 IOQ      -0.026000
     13 C13        115.2910   124.6800   122.9000 ca         1 IOQ      -0.043600
     14 C14        115.1240   125.7530   123.7870 ca         1 IOQ       0.196100
     15 C15        115.3330   125.5350   125.1390 ca         1 IOQ      -0.256000
     16 C16        115.7050   124.2750   125.5920 ca         1 IOQ       0.199100
     17 O17        115.8730   124.1590   126.9280 os         1 IOQ      -0.219200
     18 C18        116.0670   122.9390   127.4760 ca         1 IOQ       0.199100
     19 C19        116.0540   122.8930   128.8640 ca         1 IOQ      -0.256000
     20 C20        116.2400   121.6880   129.5210 ca         1 IOQ       0.196100
     21 C21        116.4290   120.5280   128.7560 ca         1 IOQ      -0.043600
     22 C22        116.4360   120.5880   127.3820 ca         1 IOQ      -0.026000
     23 C23        116.2580   121.7980   126.7120 ca         1 IOQ      -0.188800
     24 O25        116.2420   121.5660   130.8490 oh         1 IOQ      -0.466100
     25 O26        114.7620   126.9320   123.2790 oh         1 IOQ      -0.466100
     26 H1         112.9660   118.9110   123.7270 ha         1 IOQ       0.139000
     27 H2         114.6640   117.6030   122.5280 ha         1 IOQ       0.141000
     28 H3         113.5900   120.9270   125.0270 ha         1 IOQ       0.149000
     29 H4         117.0550   118.2840   122.5900 ha         1 IOQ       0.157000
     30 H5         115.7800   122.6300   122.6530 ha         1 IOQ       0.158500
     31 H6         115.2010   126.3420   125.8510 ha         1 IOQ       0.155000
     32 H7         115.8970   123.8060   129.4280 ha         1 IOQ       0.155000
     33 H8         116.5860   119.6750   126.8190 ha         1 IOQ       0.158500
     34 H9         116.0990   122.4200   131.2760 ho         1 IOQ       0.436500
     35 H10        114.6710   127.5970   123.9740 ho         1 IOQ       0.436500
     36 CL24       116.6540   119.0190   129.5650 cl         1 IOQ      -0.076400
     37 CL27       115.0240   124.9390   121.2140 cl         1 IOQ      -0.076400
@<TRIPOS>BOND
     1     1     6 ar  
     2     1     7 ar  
     3     1    26 1   
     4     2     8 1   
     5     2    10 1   
     6     2    11 1   
     7     2    23 1   
     8     3     4 1   
     9     3     8 ar  
    10     3     9 ar  
    11     4     5 2   
    12     4    10 1   
    13     6     9 ar  
    14     6    27 1   
    15     7     8 ar  
    16     7    28 1   
    17     9    29 1   
    18    11    12 ar  
    19    11    16 ar  
    20    12    13 ar  
    21    12    30 1   
    22    13    14 ar  
    23    13    37 1   
    24    14    15 ar  
    25    14    25 1   
    26    15    16 ar  
    27    15    31 1   
    28    16    17 1   
    29    17    18 1   
    30    18    19 ar  
    31    18    23 ar  
    32    19    20 ar  
    33    19    32 1   
    34    20    21 ar  
    35    20    24 1   
    36    21    22 ar  
    37    21    36 1   
    38    22    23 ar  
    39    22    33 1   
    40    24    34 1   
    41    25    35 1   
@<TRIPOS>SUBSTRUCTURE
     1 IOQ         1 TEMP              0 ****  ****    0 ROOT
