@<TRIPOS>MOLECULE
IOQ
   37    41     1     0     0
SMALL
No Charge or Current Charge


@<TRIPOS>ATOM
      1 C2         113.8350   119.3300   123.9020 ca         1 IOQ      -0.085000
      2 C10        116.4310   121.8890   125.2150 c5         1 IOQ       0.360900
      3 C5         116.5370   119.9790   123.8420 ca         1 IOQ      -0.193600
      4 C7         117.8920   120.5520   123.9880 c          1 IOQ       0.670700
      5 O8         118.9160   120.1180   123.4840 o          1 IOQ      -0.475000
      6 C1         114.7380   118.5290   123.1620 ca         1 IOQ      -0.115000
      7 C3         114.2990   120.4580   124.6110 ca         1 IOQ      -0.080000
      8 C4         115.6690   120.7590   124.5610 ca         1 IOQ      -0.099300
      9 C6         116.1110   118.8510   123.1260 ca         1 IOQ      -0.034000
     10 O9         117.8150   121.6690   124.7930 os         1 IOQ      -0.421100
     11 C11        115.9850   123.2430   124.6820 ca         1 IOQ      -0.188800
     12 C12        115.9980   123.5070   123.2950 ca         1 IOQ      -0.008000
     13 C13        115.5780   124.7530   122.7990 ca         1 IOQ       0.048000
     14 C14        115.1390   125.7530   123.6910 ca         1 IOQ       0.196100
     15 C15        115.1240   125.4950   125.0690 ca         1 IOQ      -0.238000
     16 C16        115.5430   124.2500   125.5610 ca         1 IOQ       0.199100
     17 O17        115.5090   124.0440   126.9170 os         1 IOQ      -0.219200
     18 C18        115.9170   122.8730   127.5060 ca         1 IOQ       0.199100
     19 C19        115.8600   122.7810   128.9050 ca         1 IOQ      -0.238000
     20 C20        116.2640   121.6040   129.5520 ca         1 IOQ       0.196100
     21 C21        116.7280   120.5130   128.7900 ca         1 IOQ       0.048000
     22 C22        116.7840   120.6090   127.3900 ca         1 IOQ      -0.008000
     23 C23        116.3790   121.7920   126.7320 ca         1 IOQ      -0.188800
     24 O25        116.2020   121.5310   130.9150 oh         1 IOQ      -0.505100
     25 O26        114.7270   126.9710   123.2290 oh         1 IOQ      -0.505100
     26 H1         112.7780   119.0750   123.9240 ha         1 IOQ       0.121000
     27 H2         114.3710   117.6620   122.6180 ha         1 IOQ       0.123000
     28 H3         113.6120   121.0790   125.1820 ha         1 IOQ       0.131000
     29 H4         116.8150   118.2430   122.5600 ha         1 IOQ       0.139000
     30 H5         116.3310   122.7460   122.5940 ha         1 IOQ       0.140500
     31 H6         114.7870   126.2550   125.7700 ha         1 IOQ       0.137000
     32 H7         115.4990   123.6310   129.4770 ha         1 IOQ       0.137000
     33 H8         117.1420   119.7570   126.8160 ha         1 IOQ       0.140500
     34 H9         115.8570   122.3830   131.2570 ho         1 IOQ       0.475500
     35 H10        114.4640   127.5210   123.9960 ho         1 IOQ       0.475500
     36 Cl24       117.2440   119.0130   129.5660 cl         1 IOQ      -0.168000
     37 Cl27       115.6110   125.0360   121.0560 cl         1 IOQ      -0.168000
@<TRIPOS>BOND
     1     1     6 ar  
     2     1     7 ar  
     3     1    26 1   
     4     2     8 1   
     5     2    10 1   
     6     2    11 1   
     7     2    23 1   
     8     3     4 1   
     9     3     8 ar  
    10     3     9 ar  
    11     4     5 2   
    12     4    10 1   
    13     6     9 ar  
    14     6    27 1   
    15     7     8 ar  
    16     7    28 1   
    17     9    29 1   
    18    11    12 ar  
    19    11    16 ar  
    20    12    13 ar  
    21    12    30 1   
    22    13    14 ar  
    23    13    37 1   
    24    14    15 ar  
    25    14    25 1   
    26    15    16 ar  
    27    15    31 1   
    28    16    17 1   
    29    17    18 1   
    30    18    19 ar  
    31    18    23 ar  
    32    19    20 ar  
    33    19    32 1   
    34    20    21 ar  
    35    20    24 1   
    36    21    22 ar  
    37    21    36 1   
    38    22    23 ar  
    39    22    33 1   
    40    24    34 1   
    41    25    35 1   
@<TRIPOS>SUBSTRUCTURE
     1 IOQ         1 TEMP              0 ****  ****    0 ROOT
