@<TRIPOS>MOLECULE
IOS
   20    21     1     0     0
SMALL
abcg2


@<TRIPOS>ATOM
      1 O1           8.2730    -5.8470     1.8660 os         1 IOS      -0.454800
      2 N1           5.2680    -7.7210     1.7820 na         1 IOS      -0.233700
      3 C1           6.1840    -6.9020     1.1850 cc         1 IOS      -0.212100
      4 C2           7.1980    -6.6590     2.0670 cd         1 IOS       0.130900
      5 C3           6.9070    -7.3700     3.2700 ca         1 IOS      -0.104800
      6 C4           7.5530    -7.5140     4.5020 ca         1 IOS      -0.008000
      7 C5           6.9600    -8.2950     5.4730 ca         1 IOS      -0.176000
      8 C6           5.7330    -8.9410     5.2360 ca         1 IOS      -0.100000
      9 C7           5.0760    -8.8160     4.0280 ca         1 IOS      -0.153000
     10 C8           5.6750    -8.0230     3.0490 ca         1 IOS      -0.047200
     11 S            9.6240    -6.5570     1.1740 s6         1 IOS       1.487300
     12 O2          10.5490    -5.4290     1.2100 o          1 IOS      -0.698200
     13 O3           9.9640    -7.6700     2.0570 o          1 IOS      -0.698200
     14 O4           9.1940    -6.9620    -0.1630 o          1 IOS      -0.698200
     15 H4           8.5040    -7.0310     4.6860 ha         1 IOS       0.133000
     16 H5           7.4440    -8.4190     6.4330 ha         1 IOS       0.096000
     17 H6           5.2960    -9.5510     6.0160 ha         1 IOS       0.088000
     18 H7           4.1320    -9.3150     3.8480 ha         1 IOS       0.094000
     19 H1           4.4240    -8.0510     1.3440 hn         1 IOS       0.333000
     20 HA           6.0420    -6.5460     0.1770 h4         1 IOS       0.222000
@<TRIPOS>BOND
     1     1     4 1   
     2     1    11 1   
     3     2     3 1   
     4     2    10 1   
     5     2    19 1   
     6     3     4 2   
     7     3    20 1   
     8     4     5 1   
     9     5     6 ar  
    10     5    10 ar  
    11     6     7 ar  
    12     6    15 1   
    13     7     8 ar  
    14     7    16 1   
    15     8     9 ar  
    16     8    17 1   
    17     9    10 ar  
    18     9    18 1   
    19    11    12 1   
    20    11    13 1   
    21    11    14 1   
@<TRIPOS>SUBSTRUCTURE
     1 IOS         1 TEMP              0 ****  ****    0 ROOT
