@<TRIPOS>MOLECULE
IOS
   20    21     1     0     0
SMALL
No Charge or Current Charge


@<TRIPOS>ATOM
      1 O1           8.7890    -6.6330     2.1460 os         1 IOS      -0.454800
      2 N1           5.5770    -8.0700     1.7590 na         1 IOS      -0.233700
      3 C1           6.6960    -7.4610     1.1350 cc         1 IOS      -0.212100
      4 C2           7.5500    -7.2160     2.1980 cd         1 IOS       0.130900
      5 C3           7.0090    -7.6470     3.4550 ca         1 IOS      -0.104800
      6 C4           7.4960    -7.6090     4.7670 ca         1 IOS      -0.008000
      7 C5           6.6650    -8.1390     5.7790 ca         1 IOS      -0.176000
      8 C6           5.3960    -8.6830     5.4560 ca         1 IOS      -0.100000
      9 C7           4.9430    -8.7020     4.1170 ca         1 IOS      -0.153000
     10 C8           5.7850    -8.1700     3.1330 ca         1 IOS      -0.047200
     11 S            9.4760    -6.1130     0.7400 s6         1 IOS       1.487300
     12 O2          10.7770    -5.5690     1.1630 o          1 IOS      -0.698200
     13 O3           9.5740    -7.3220    -0.0940 o          1 IOS      -0.698200
     14 O4           8.5420    -5.1000     0.2230 o          1 IOS      -0.698200
     15 H4           8.4730    -7.1870     4.9950 ha         1 IOS       0.133000
     16 H5           7.0020    -8.1300     6.8130 ha         1 IOS       0.096000
     17 H6           4.7650    -9.0880     6.2440 ha         1 IOS       0.088000
     18 H7           3.9710    -9.1170     3.8610 ha         1 IOS       0.094000
     19 H1           4.7410    -8.3900     1.2790 hn         1 IOS       0.333000
     20 HA           6.7740    -7.2730     0.0700 h4         1 IOS       0.222000
@<TRIPOS>BOND
     1     1     4 1   
     2     1    11 1   
     3     2     3 1   
     4     2    10 1   
     5     2    19 1   
     6     3     4 2   
     7     3    20 1   
     8     4     5 1   
     9     5     6 ar  
    10     5    10 ar  
    11     6     7 ar  
    12     6    15 1   
    13     7     8 ar  
    14     7    16 1   
    15     8     9 ar  
    16     8    17 1   
    17     9    10 ar  
    18     9    18 1   
    19    11    12 1   
    20    11    13 1   
    21    11    14 1   
@<TRIPOS>SUBSTRUCTURE
     1 IOS         1 TEMP              0 ****  ****    0 ROOT
