@<TRIPOS>MOLECULE
IOU
   49    52     1     0     0
SMALL
No Charge or Current Charge


@<TRIPOS>ATOM
      1 C10         31.5210   -42.9970   -15.5200 c3         1 IOU      -0.141400
      2 C13         30.5650   -47.9390   -11.7400 c3         1 IOU      -0.104700
      3 C17         31.9090   -49.3530    -8.7790 cc         1 IOU       0.809900
      4 C19         28.6700   -49.8270    -9.9920 c3         1 IOU       0.077900
      5 C21         32.7610   -50.1110    -6.6190 c5         1 IOU       0.241800
      6 C22         33.5550   -49.1280    -5.7080 c5         1 IOU      -0.085700
      7 C23         34.7490   -48.7510    -6.6280 c5         1 IOU      -0.094400
      8 C24         34.0160   -48.4420    -7.9560 c5         1 IOU       0.244800
      9 C25         33.9600   -49.7070    -4.3360 c3         1 IOU      -0.081100
     10 N1          29.3250   -43.4120   -16.4540 nc         1 IOU      -0.649000
     11 C2          28.0800   -44.0430   -16.4110 cc         1 IOU       0.282900
     12 C3          27.6550   -44.9300   -15.4190 cd         1 IOU      -0.088300
     13 C4          30.1810   -43.6770   -15.4690 cd         1 IOU       0.403300
     14 C5          29.8110   -44.5720   -14.4260 cd         1 IOU      -0.121000
     15 N6          28.5940   -45.1620   -14.4180 na         1 IOU       0.311400
     16 N7          28.4010   -45.9890   -13.3570 nd         1 IOU      -0.594100
     17 C8          29.5790   -45.8250   -12.7670 cc         1 IOU       0.525300
     18 N9          30.4810   -44.9790   -13.3670 nc         1 IOU      -0.380300
     19 C12         29.9510   -46.5390   -11.4970 c3         1 IOU      -0.078700
     20 C14         30.9120   -48.6550   -10.4610 cd         1 IOU       0.448800
     21 N15         30.0700   -49.4660    -9.7100 na         1 IOU      -0.060700
     22 N16         30.7400   -49.9370    -8.6130 nd         1 IOU      -0.618800
     23 N18         32.0890   -48.5840    -9.8800 nc         1 IOU      -0.754000
     24 N20         33.0090   -49.5370    -7.9720 nh         1 IOU      -0.796300
     25 H28         31.6190   -42.3450   -16.3960 hc         1 IOU       0.064700
     26 H29         31.6760   -42.3830   -14.6260 hc         1 IOU       0.064700
     27 H27         32.3270   -43.7380   -15.5620 hc         1 IOU       0.064700
     28 H31         26.4030   -46.6960   -15.4160 hc         1 IOU       0.064033
     29 H30         25.7460   -45.3380   -14.4840 hc         1 IOU       0.064033
     30 H32         25.6890   -45.3090   -16.2520 hc         1 IOU       0.064033
     31 H35         29.8640   -48.5460   -12.3250 hc         1 IOU       0.073700
     32 H36         31.4660   -47.8340   -12.3570 hc         1 IOU       0.073700
     33 H38         28.6240   -50.4300   -10.9070 h1         1 IOU       0.054367
     34 H37         28.2550   -50.4050    -9.1570 h1         1 IOU       0.054367
     35 H39         28.0750   -48.9150   -10.1280 h1         1 IOU       0.054367
     36 H41         31.7050   -50.1470    -6.3200 h1         1 IOU       0.048700
     37 H40         33.1660   -51.1310    -6.5560 h1         1 IOU       0.048700
     38 H42         32.9450   -48.2380    -5.5040 hc         1 IOU       0.053700
     39 H44         35.3170   -47.8900    -6.2590 hc         1 IOU       0.051700
     40 H43         35.4510   -49.5860    -6.7450 hc         1 IOU       0.051700
     41 H45         34.6970   -48.4790    -8.8180 h1         1 IOU       0.048700
     42 H46         33.5420   -47.4500    -7.9240 h1         1 IOU       0.048700
     43 H49         34.5360   -48.9760    -3.7550 hc         1 IOU       0.036033
     44 H47         33.0760   -49.9800    -3.7480 hc         1 IOU       0.036033
     45 H48         34.5780   -50.6070    -4.4500 hc         1 IOU       0.036033
     46 H26         27.4350   -43.7850   -17.2410 h4         1 IOU       0.038100
     47 H34         30.6630   -45.9260   -10.9300 hc         1 IOU       0.072700
     48 H33         29.0600   -46.6370   -10.8650 hc         1 IOU       0.072700
     49 C11         26.3010   -45.6040   -15.3920 c3         1 IOU      -0.041800
@<TRIPOS>BOND
     1     1    13 1   
     2     1    25 1   
     3     1    26 1   
     4     1    27 1   
     5     2    19 1   
     6     2    20 1   
     7     2    31 1   
     8     2    32 1   
     9     3    22 2   
    10     3    23 1   
    11     3    24 1   
    12     4    21 1   
    13     4    33 1   
    14     4    34 1   
    15     4    35 1   
    16     5     6 1   
    17     5    24 1   
    18     5    36 1   
    19     5    37 1   
    20     6     7 1   
    21     6     9 1   
    22     6    38 1   
    23     7     8 1   
    24     7    39 1   
    25     7    40 1   
    26     8    24 1   
    27     8    41 1   
    28     8    42 1   
    29     9    43 1   
    30     9    44 1   
    31     9    45 1   
    32    10    11 1   
    33    10    13 2   
    34    11    12 2   
    35    11    46 1   
    36    12    15 1   
    37    12    49 1   
    38    13    14 1   
    39    14    15 1   
    40    14    18 2   
    41    15    16 1   
    42    16    17 2   
    43    17    18 1   
    44    17    19 1   
    45    19    47 1   
    46    19    48 1   
    47    20    21 1   
    48    20    23 2   
    49    21    22 1   
    50    28    49 1   
    51    29    49 1   
    52    30    49 1   
@<TRIPOS>SUBSTRUCTURE
     1 IOU         1 TEMP              0 ****  ****    0 ROOT
