@<TRIPOS>MOLECULE
IOU
   49    52     1     0     0
SMALL
bcc


@<TRIPOS>ATOM
      1 C10         31.4680   -44.0940   -16.2990 c3         1 IOU      -0.141400
      2 C13         30.9230   -47.8270   -11.9150 c3         1 IOU      -0.104700
      3 C17         32.0740   -49.0790    -8.8010 cc         1 IOU       0.809900
      4 C19         29.6170   -50.4570   -10.8100 c3         1 IOU       0.048600
      5 C21         32.6110   -49.8940    -6.5480 c5         1 IOU       0.241800
      6 C22         33.2910   -49.1510    -5.3960 c5         1 IOU      -0.085700
      7 C23         34.4040   -48.3830    -6.1060 c5         1 IOU      -0.094400
      8 C24         33.7600   -47.9470    -7.4160 c5         1 IOU       0.244800
      9 C25         33.7610   -50.0580    -4.2750 c3         1 IOU      -0.081100
     10 N1          29.0920   -43.6350   -16.5440 nc         1 IOU      -0.649000
     11 C2          27.8080   -43.7250   -16.1230 cc         1 IOU       0.348200
     12 C3          27.4140   -44.3670   -14.9860 cd         1 IOU      -0.102900
     13 C4          30.0500   -44.1810   -15.8480 cd         1 IOU       0.468600
     14 C5          29.7350   -44.8660   -14.6480 cd         1 IOU      -0.135600
     15 N6          28.4270   -44.9310   -14.2710 na         1 IOU       0.210000
     16 N7          28.3160   -45.6110   -13.1330 nd         1 IOU      -0.594100
     17 C8          29.5730   -45.9300   -12.8560 cc         1 IOU       0.525300
     18 N9          30.4750   -45.5000   -13.7510 nc         1 IOU      -0.380300
     19 C12         29.9350   -46.6890   -11.6290 c3         1 IOU      -0.078700
     20 C14         31.2640   -48.5590   -10.6650 cd         1 IOU       0.448800
     21 N15         30.6740   -49.6710   -10.2280 na         1 IOU      -0.031400
     22 N16         31.1820   -50.0280    -9.0260 nd         1 IOU      -0.618800
     23 N18         32.1630   -48.1530    -9.7850 nc         1 IOU      -0.754000
     24 N20         32.8390   -49.0330    -7.6900 nh         1 IOU      -0.796300
     25 H28         31.5340   -43.5390   -17.2320 hc         1 IOU       0.064700
     26 H29         32.0860   -43.5960   -15.5500 hc         1 IOU       0.064700
     27 H27         31.8910   -45.0880   -16.4520 hc         1 IOU       0.064700
     28 H31         25.7240   -45.5390   -14.4130 hc         1 IOU       0.064033
     29 H30         25.9160   -44.0500   -13.4980 hc         1 IOU       0.064033
     30 H32         25.3400   -43.9880   -15.1680 hc         1 IOU       0.064033
     31 H35         30.5080   -48.5010   -12.6650 hc         1 IOU       0.073700
     32 H36         31.8430   -47.4190   -12.3320 hc         1 IOU       0.073700
     33 H38         29.9300   -51.4960   -10.8940 h1         1 IOU       0.054367
     34 H37         28.7210   -50.4040   -10.1930 h1         1 IOU       0.054367
     35 H39         29.3810   -50.0820   -11.8010 h1         1 IOU       0.054367
     36 H41         31.5440   -50.0470    -6.3670 h1         1 IOU       0.048700
     37 H40         33.0590   -50.8850    -6.6970 h1         1 IOU       0.048700
     38 H42         32.5770   -48.4260    -4.9910 hc         1 IOU       0.053700
     39 H44         34.7770   -47.5390    -5.5250 hc         1 IOU       0.051700
     40 H43         35.2480   -49.0500    -6.3040 hc         1 IOU       0.051700
     41 H45         34.4880   -47.8220    -8.2200 h1         1 IOU       0.048700
     42 H46         33.2350   -46.9910    -7.3000 h1         1 IOU       0.048700
     43 H49         34.2450   -49.4850    -3.4830 hc         1 IOU       0.036033
     44 H47         32.9280   -50.6020    -3.8260 hc         1 IOU       0.036033
     45 H48         34.4800   -50.7930    -4.6430 hc         1 IOU       0.036033
     46 H26         27.0600   -43.2510   -16.7440 h4         1 IOU       0.038100
     47 H34         30.3830   -46.0040   -10.9040 hc         1 IOU       0.072700
     48 H33         29.0240   -47.0800   -11.1740 hc         1 IOU       0.072700
     49 C11         26.0220   -44.4930   -14.4890 c3         1 IOU      -0.041800
@<TRIPOS>BOND
     1     1    13 1   
     2     1    25 1   
     3     1    26 1   
     4     1    27 1   
     5     2    19 1   
     6     2    20 1   
     7     2    31 1   
     8     2    32 1   
     9     3    22 2   
    10     3    23 1   
    11     3    24 1   
    12     4    21 1   
    13     4    33 1   
    14     4    34 1   
    15     4    35 1   
    16     5     6 1   
    17     5    24 1   
    18     5    36 1   
    19     5    37 1   
    20     6     7 1   
    21     6     9 1   
    22     6    38 1   
    23     7     8 1   
    24     7    39 1   
    25     7    40 1   
    26     8    24 1   
    27     8    41 1   
    28     8    42 1   
    29     9    43 1   
    30     9    44 1   
    31     9    45 1   
    32    10    11 1   
    33    10    13 2   
    34    11    12 2   
    35    11    46 1   
    36    12    15 1   
    37    12    49 1   
    38    13    14 1   
    39    14    15 1   
    40    14    18 2   
    41    15    16 1   
    42    16    17 2   
    43    17    18 1   
    44    17    19 1   
    45    19    47 1   
    46    19    48 1   
    47    20    21 1   
    48    20    23 2   
    49    21    22 1   
    50    28    49 1   
    51    29    49 1   
    52    30    49 1   
@<TRIPOS>SUBSTRUCTURE
     1 IOU         1 TEMP              0 ****  ****    0 ROOT
