@<TRIPOS>MOLECULE
IOV
   47    48     1     0     0
SMALL
No Charge or Current Charge


@<TRIPOS>ATOM
      1 C1         -13.1590     9.1740   -10.3300 cc         1 IOV       0.061600
      2 C2         -12.3920     8.3090   -11.0990 cd         1 IOV      -0.312600
      3 C3         -11.5940     9.0070   -12.0920 cd         1 IOV       0.067700
      4 C4         -11.7230    10.3860   -11.9890 cc         1 IOV      -0.399600
      5 S5         -12.9450    10.8470   -10.8230 ss         1 IOV       0.322000
      6 N6         -13.9760     8.7460    -9.2840 ns         1 IOV      -0.352100
      7 C7         -14.8610     9.4740    -8.5120 c          1 IOV       0.659100
      8 C8         -12.4300     6.8220   -10.8580 c          1 IOV       0.647700
      9 C9         -10.9470    11.4190   -12.7120 c          1 IOV       0.653700
     10 C10        -15.7070     8.6740    -7.4820 c6         1 IOV      -0.091700
     11 C11        -14.9440     8.5420    -6.1120 c6         1 IOV      -0.192700
     12 C12        -13.4620     8.0900    -6.2210 c          1 IOV       0.721000
     13 O13        -15.0820    10.6620    -8.7100 o          1 IOV      -0.604100
     14 O14        -11.4870     6.0920   -11.5340 os         1 IOV      -0.439100
     15 CA         -11.4940     4.6530   -11.4440 c3         1 IOV       0.167600
     16 CB         -12.6240     4.1020   -12.3380 c3         1 IOV      -0.119100
     17 N15        -11.3100    12.6930   -12.4690 nt         1 IOV      -0.608000
     18 O16        -12.6050     8.8820    -5.8590 o          1 IOV      -0.726000
     19 O17        -13.2240     6.2920   -10.0920 o          1 IOV      -0.540000
     20 C18        -10.7260     8.3020   -13.1210 c3         1 IOV      -0.035800
     21 O19        -13.2060     7.0050    -6.7140 o          1 IOV      -0.726000
     22 O20        -10.0210    11.2130   -13.4730 o          1 IOV      -0.617100
     23 C21        -16.1400     7.2600    -7.9960 c6         1 IOV      -0.075400
     24 C22        -15.7660     7.7220    -5.0730 c6         1 IOV      -0.044400
     25 C24        -17.0010     6.5140    -6.9500 c6         1 IOV      -0.066400
     26 C25        -16.2340     6.3500    -5.6180 c6         1 IOV      -0.072400
     27 H1         -13.9370     7.7580    -9.0510 hn         1 IOV       0.372500
     28 H2         -16.6100     9.2700    -7.2910 hc         1 IOV       0.037700
     29 H3         -14.8920     9.5580    -5.6960 hc         1 IOV       0.051700
     30 H4         -10.5380     4.2550   -11.8080 h1         1 IOV       0.055700
     31 H5         -11.6210     4.3130   -10.4070 h1         1 IOV       0.055700
     32 H6         -12.5920     3.0060   -12.3500 hc         1 IOV       0.042367
     33 H7         -13.6100     4.4070   -11.9710 hc         1 IOV       0.042367
     34 H8         -12.5080     4.4590   -13.3680 hc         1 IOV       0.042367
     35 H9         -10.8100    13.4380   -12.9300 hn         1 IOV       0.304000
     36 H10        -12.0720    12.8960   -11.8440 hn         1 IOV       0.304000
     37 H11        -11.2340     7.4250   -13.5360 hc         1 IOV       0.049367
     38 H12        -10.5110     8.9190   -13.9960 hc         1 IOV       0.049367
     39 H13         -9.7730     7.9810   -12.6860 hc         1 IOV       0.049367
     40 H15        -16.7170     7.3700    -8.9250 hc         1 IOV       0.048200
     41 H16        -15.2740     6.6360    -8.2490 hc         1 IOV       0.048200
     42 H17        -15.1770     7.5790    -4.1570 hc         1 IOV       0.027700
     43 H18        -16.6510     8.3030    -4.7770 hc         1 IOV       0.027700
     44 H19        -17.9360     7.0640    -6.7770 hc         1 IOV       0.018200
     45 H20        -17.2860     5.5270    -7.3380 hc         1 IOV       0.018200
     46 H21        -15.3720     5.6860    -5.7630 hc         1 IOV       0.038200
     47 H22        -16.8800     5.8590    -4.8770 hc         1 IOV       0.038200
@<TRIPOS>BOND
     1     1     2 2   
     2     1     5 1   
     3     1     6 1   
     4     2     3 1   
     5     2     8 1   
     6     3     4 2   
     7     3    20 1   
     8     4     5 1   
     9     4     9 1   
    10     6     7 1   
    11     6    27 1   
    12     7    10 1   
    13     7    13 2   
    14     8    14 1   
    15     8    19 2   
    16     9    17 1   
    17     9    22 2   
    18    10    11 1   
    19    10    23 1   
    20    10    28 1   
    21    11    12 1   
    22    11    24 1   
    23    11    29 1   
    24    12    18 1   
    25    12    21 1   
    26    14    15 1   
    27    15    16 1   
    28    15    30 1   
    29    15    31 1   
    30    16    32 1   
    31    16    33 1   
    32    16    34 1   
    33    17    35 1   
    34    17    36 1   
    35    20    37 1   
    36    20    38 1   
    37    20    39 1   
    38    23    25 1   
    39    23    40 1   
    40    23    41 1   
    41    24    26 1   
    42    24    42 1   
    43    24    43 1   
    44    25    26 1   
    45    25    44 1   
    46    25    45 1   
    47    26    46 1   
    48    26    47 1   
@<TRIPOS>SUBSTRUCTURE
     1 IOV         1 TEMP              0 ****  ****    0 ROOT
