@<TRIPOS>MOLECULE
IOV
   47    48     1     0     0
SMALL
abcg2


@<TRIPOS>ATOM
      1 C1         -13.0290     8.8540   -10.3060 cc         1 IOV       0.061600
      2 C2         -12.3090     8.0850   -11.2160 cd         1 IOV      -0.312600
      3 C3         -11.4960     8.8890   -12.0900 cd         1 IOV       0.067700
      4 C4         -11.6300    10.2190   -11.8100 cc         1 IOV      -0.399600
      5 S5         -12.7200    10.5290   -10.4900 ss         1 IOV       0.322000
      6 N6         -13.8800     8.3840    -9.3570 ns         1 IOV      -0.352100
      7 C7         -14.5040     9.1650    -8.4210 c          1 IOV       0.659100
      8 C8         -12.4160     6.6250   -11.1770 c          1 IOV       0.647700
      9 C9         -10.9430    11.3720   -12.4360 c          1 IOV       0.653700
     10 C10        -15.4570     8.4830    -7.4680 c6         1 IOV      -0.091700
     11 C11        -15.1460     8.8820    -6.0170 c6         1 IOV      -0.192700
     12 C12        -13.7030     8.4950    -5.6140 c          1 IOV       0.721000
     13 O13        -14.3670    10.3770    -8.4530 o          1 IOV      -0.604100
     14 O14        -11.6180     6.0080   -12.0280 os         1 IOV      -0.439100
     15 CA         -11.6420     4.5720   -12.0870 c3         1 IOV       0.167600
     16 CB         -12.7900     4.0540   -12.9240 c3         1 IOV      -0.119100
     17 N15        -11.6450    12.5250   -12.4320 nt         1 IOV      -0.608000
     18 O16        -13.4630     8.3600    -4.4000 o          1 IOV      -0.726000
     19 O17        -13.1560     6.0250   -10.4180 o          1 IOV      -0.540000
     20 C18        -10.6590     8.3550   -13.2120 c3         1 IOV      -0.035800
     21 O19        -12.8800     8.3930    -6.5490 o          1 IOV      -0.726000
     22 O20         -9.8060    11.2990   -12.8800 o          1 IOV      -0.617100
     23 C21        -15.5930     6.9680    -7.6190 c6         1 IOV      -0.075400
     24 C22        -16.2160     8.3210    -5.0830 c6         1 IOV      -0.044400
     25 C24        -16.6550     6.4240    -6.6670 c6         1 IOV      -0.066400
     26 C25        -16.3630     6.8100    -5.2220 c6         1 IOV      -0.072400
     27 H1         -13.9530     7.3740    -9.3190 hn         1 IOV       0.372500
     28 H2         -16.4350     8.9200    -7.7180 hc         1 IOV       0.037700
     29 H3         -15.1950     9.9760    -5.9540 hc         1 IOV       0.051700
     30 H4         -10.6880     4.3070   -12.5400 h1         1 IOV       0.055700
     31 H5         -11.6630     4.1550   -11.0800 h1         1 IOV       0.055700
     32 H6         -12.7020     2.9710   -13.0150 hc         1 IOV       0.042367
     33 H7         -13.7570     4.2730   -12.4760 hc         1 IOV       0.042367
     34 H8         -12.7670     4.4760   -13.9290 hc         1 IOV       0.042367
     35 H9         -11.2340    13.3410   -12.8570 hn         1 IOV       0.304000
     36 H10        -12.6440    12.5420   -12.3140 hn         1 IOV       0.304000
     37 H11        -11.2470     7.7150   -13.8670 hc         1 IOV       0.049367
     38 H12        -10.2470     9.1610   -13.8080 hc         1 IOV       0.049367
     39 H13         -9.8270     7.7590   -12.8380 hc         1 IOV       0.049367
     40 H15        -15.8700     6.7060    -8.6440 hc         1 IOV       0.048200
     41 H16        -14.6370     6.4820    -7.4040 hc         1 IOV       0.048200
     42 H17        -15.9810     8.5910    -4.0540 hc         1 IOV       0.027700
     43 H18        -17.1770     8.7910    -5.3200 hc         1 IOV       0.027700
     44 H19        -17.6340     6.8210    -6.9570 hc         1 IOV       0.018200
     45 H20        -16.7170     5.3390    -6.7700 hc         1 IOV       0.018200
     46 H21        -15.4430     6.3190    -4.8910 hc         1 IOV       0.038200
     47 H22        -17.1600     6.4470    -4.5690 hc         1 IOV       0.038200
@<TRIPOS>BOND
     1     1     2 2   
     2     1     5 1   
     3     1     6 1   
     4     2     3 1   
     5     2     8 1   
     6     3     4 2   
     7     3    20 1   
     8     4     5 1   
     9     4     9 1   
    10     6     7 1   
    11     6    27 1   
    12     7    10 1   
    13     7    13 2   
    14     8    14 1   
    15     8    19 2   
    16     9    17 1   
    17     9    22 2   
    18    10    11 1   
    19    10    23 1   
    20    10    28 1   
    21    11    12 1   
    22    11    24 1   
    23    11    29 1   
    24    12    18 1   
    25    12    21 1   
    26    14    15 1   
    27    15    16 1   
    28    15    30 1   
    29    15    31 1   
    30    16    32 1   
    31    16    33 1   
    32    16    34 1   
    33    17    35 1   
    34    17    36 1   
    35    20    37 1   
    36    20    38 1   
    37    20    39 1   
    38    23    25 1   
    39    23    40 1   
    40    23    41 1   
    41    24    26 1   
    42    24    42 1   
    43    24    43 1   
    44    25    26 1   
    45    25    44 1   
    46    25    45 1   
    47    26    46 1   
    48    26    47 1   
@<TRIPOS>SUBSTRUCTURE
     1 IOV         1 TEMP              0 ****  ****    0 ROOT
