@<TRIPOS>MOLECULE
IOW
   18    17     1     0     0
SMALL
abcg2


@<TRIPOS>ATOM
      1 C01         -7.4360   -27.0730    45.9820 c          1 IOW       0.667000
      2 C02         -8.3590   -28.1310    46.6130 c          1 IOW       0.465100
      3 C03         -8.4550   -28.1830    48.1150 c3         1 IOW      -0.172400
      4 C04         -9.5130   -27.1860    48.6450 c3         1 IOW       0.053000
      5 C05         -9.4440   -27.1840    50.1990 c          1 IOW       0.695000
      6 C06        -10.9210   -27.5730    48.1970 c3         1 IOW      -0.068100
      7 O01         -7.8960   -26.4450    45.0160 o          1 IOW      -0.730000
      8 O02         -6.3050   -27.0000    46.4970 o          1 IOW      -0.730000
      9 O03         -8.9740   -28.9080    45.9090 o          1 IOW      -0.625100
     10 O04         -9.2110   -25.8870    48.1960 oh         1 IOW      -0.683000
     11 O05         -9.1390   -26.0740    50.6970 o          1 IOW      -0.739000
     12 O06         -9.6880   -28.2410    50.7970 o          1 IOW      -0.739000
     13 H03         -8.7270   -29.1900    48.4320 hc         1 IOW       0.051200
     14 H02         -7.4870   -27.9340    48.5530 hc         1 IOW       0.051200
     15 H06        -11.6610   -26.9140    48.6560 hc         1 IOW       0.014367
     16 H08        -11.0360   -27.4890    47.1150 hc         1 IOW       0.014367
     17 H07        -11.1620   -28.5960    48.4810 hc         1 IOW       0.014367
     18 H04         -9.0340   -25.4270    49.0420 ho         1 IOW       0.462000
@<TRIPOS>BOND
     1     1     2 1   
     2     1     7 1   
     3     1     8 1   
     4     2     3 1   
     5     2     9 2   
     6     3     4 1   
     7     3    13 1   
     8     3    14 1   
     9     4     5 1   
    10     4     6 1   
    11     4    10 1   
    12     5    11 1   
    13     5    12 1   
    14     6    15 1   
    15     6    16 1   
    16     6    17 1   
    17    10    18 1   
@<TRIPOS>SUBSTRUCTURE
     1 IOW         1 TEMP              0 ****  ****    0 ROOT
