@<TRIPOS>MOLECULE
IOW
   18    17     1     0     0
SMALL
No Charge or Current Charge


@<TRIPOS>ATOM
      1 C01         -7.2810   -27.0980    45.9150 c          1 IOW       0.667000
      2 C02         -8.3850   -28.1170    46.5450 c          1 IOW       0.465100
      3 C03         -8.4810   -28.1900    48.0850 c3         1 IOW      -0.172400
      4 C04         -9.5330   -27.2110    48.6870 c3         1 IOW       0.053000
      5 C05         -9.4570   -27.2010    50.2730 c          1 IOW       0.695000
      6 C06        -10.9790   -27.5730    48.2580 c3         1 IOW      -0.068100
      7 O01         -7.5550   -26.4980    44.8750 o          1 IOW      -0.730000
      8 O02         -6.1710   -27.0260    46.4430 o          1 IOW      -0.730000
      9 O03         -9.1110   -28.8290    45.8370 o          1 IOW      -0.625100
     10 O04         -9.2460   -25.8900    48.1750 oh         1 IOW      -0.683000
     11 O05         -9.3490   -26.1090    50.8210 o          1 IOW      -0.739000
     12 O06         -9.4160   -28.2600    50.8860 o          1 IOW      -0.739000
     13 H03         -8.7320   -29.2150    48.3830 hc         1 IOW       0.051200
     14 H02         -7.5140   -27.9040    48.5120 hc         1 IOW       0.051200
     15 H06        -11.7030   -26.9010    48.7360 hc         1 IOW       0.014367
     16 H08        -11.1110   -27.4890    47.1730 hc         1 IOW       0.014367
     17 H07        -11.2270   -28.5990    48.5540 hc         1 IOW       0.014367
     18 H04         -9.1970   -25.3260    48.9860 ho         1 IOW       0.462000
@<TRIPOS>BOND
     1     1     2 1   
     2     1     7 1   
     3     1     8 1   
     4     2     3 1   
     5     2     9 2   
     6     3     4 1   
     7     3    13 1   
     8     3    14 1   
     9     4     5 1   
    10     4     6 1   
    11     4    10 1   
    12     5    11 1   
    13     5    12 1   
    14     6    15 1   
    15     6    16 1   
    16     6    17 1   
    17    10    18 1   
@<TRIPOS>SUBSTRUCTURE
     1 IOW         1 TEMP              0 ****  ****    0 ROOT
