@<TRIPOS>MOLECULE
IOY
   22    22     1     0     0
SMALL
No Charge or Current Charge


@<TRIPOS>ATOM
      1 CG          18.2420   -15.7070   -58.3780 ca         1 IOY      -0.017300
      2 CD1         17.8170   -16.3880   -59.5360 ca         1 IOY      -0.118500
      3 CE1         17.8330   -17.7940   -59.5780 ca         1 IOY      -0.111000
      4 CZ          18.2750   -18.5230   -58.4620 ca         1 IOY       0.054900
      5 I1          18.2990   -20.6790   -58.5260 i          1 IOY      -0.241900
      6 CE2         18.7010   -17.8520   -57.3050 ca         1 IOY      -0.111000
      7 CD2         18.6850   -16.4460   -57.2630 ca         1 IOY      -0.118500
      8 CB          18.2250   -14.1830   -58.3280 c3         1 IOY      -0.018100
      9 N           17.2680   -12.1500   -57.2120 n8         1 IOY      -0.898800
     10 C           15.6520   -14.0470   -58.0980 c          1 IOY       0.898600
     11 OXT         14.8860   -14.7180   -57.4150 o          1 IOY      -0.835300
     12 O           15.3200   -13.5750   -59.1820 o          1 IOY      -0.835300
     13 CA          17.0550   -13.6250   -57.4780 c3         1 IOY       0.022500
     14 HD1         17.4720   -15.8300   -60.4040 ha         1 IOY       0.143500
     15 HE1         17.5040   -18.3170   -60.4720 ha         1 IOY       0.129000
     16 HE2         19.0430   -18.4200   -56.4430 ha         1 IOY       0.129000
     17 HD2         19.0170   -15.9310   -56.3640 ha         1 IOY       0.143500
     18 HB3         19.1750   -13.8300   -57.9070 hc         1 IOY       0.041700
     19 HB2         18.1720   -13.7660   -59.3410 hc         1 IOY       0.041700
     20 H           16.5280   -11.8110   -56.5860 hn         1 IOY       0.329300
     21 H2          17.1100   -11.6330   -58.0840 hn         1 IOY       0.329300
     22 HA          17.1110   -14.1170   -56.4980 h1         1 IOY       0.043700
@<TRIPOS>BOND
     1     1     2 ar  
     2     1     7 ar  
     3     1     8 1   
     4     2     3 ar  
     5     2    14 1   
     6     3     4 ar  
     7     3    15 1   
     8     4     5 1   
     9     4     6 ar  
    10     6     7 ar  
    11     6    16 1   
    12     7    17 1   
    13     8    13 1   
    14     8    18 1   
    15     8    19 1   
    16     9    13 1   
    17     9    20 1   
    18     9    21 1   
    19    10    11 1   
    20    10    12 1   
    21    10    13 1   
    22    13    22 1   
@<TRIPOS>SUBSTRUCTURE
     1 IOY         1 TEMP              0 ****  ****    0 ROOT
