@<TRIPOS>MOLECULE
IOY
   22    22     1     0     0
SMALL
bcc


@<TRIPOS>ATOM
      1 CG          18.2500   -15.6950   -58.3640 ca         1 IOY      -0.017300
      2 CD1         17.7820   -16.3680   -59.4890 ca         1 IOY      -0.118500
      3 CE1         17.7940   -17.7550   -59.5600 ca         1 IOY      -0.111000
      4 CZ          18.2750   -18.4830   -58.4830 ca         1 IOY       0.054900
      5 I1          18.2990   -20.5870   -58.5760 i          1 IOY      -0.241900
      6 CE2         18.7440   -17.8440   -57.3440 ca         1 IOY      -0.111000
      7 CD2         18.7270   -16.4570   -57.2980 ca         1 IOY      -0.118500
      8 CB          18.2280   -14.1970   -58.2700 c3         1 IOY      -0.018100
      9 N           17.2090   -12.2360   -57.2540 n8         1 IOY      -0.898800
     10 C           15.6760   -14.0100   -58.0950 c          1 IOY       0.898600
     11 OXT         14.7450   -14.2790   -57.3100 o          1 IOY      -0.835300
     12 O           15.6000   -13.9150   -59.3390 o          1 IOY      -0.835300
     13 CA          17.0450   -13.6790   -57.4530 c3         1 IOY       0.022500
     14 HD1         17.3980   -15.8020   -60.3270 ha         1 IOY       0.143500
     15 HE1         17.4270   -18.2490   -60.4500 ha         1 IOY       0.129000
     16 HE2         19.1230   -18.4050   -56.5010 ha         1 IOY       0.129000
     17 HD2         19.1020   -15.9590   -56.4110 ha         1 IOY       0.143500
     18 HB3         19.1510   -13.8500   -57.7970 hc         1 IOY       0.041700
     19 HB2         18.1940   -13.7610   -59.2700 hc         1 IOY       0.041700
     20 H           16.4610   -11.8970   -56.6600 hn         1 IOY       0.329300
     21 H2          17.0730   -11.7690   -58.1450 hn         1 IOY       0.329300
     22 HA          17.0880   -14.1440   -56.4630 h1         1 IOY       0.043700
@<TRIPOS>BOND
     1     1     2 ar  
     2     1     7 ar  
     3     1     8 1   
     4     2     3 ar  
     5     2    14 1   
     6     3     4 ar  
     7     3    15 1   
     8     4     5 1   
     9     4     6 ar  
    10     6     7 ar  
    11     6    16 1   
    12     7    17 1   
    13     8    13 1   
    14     8    18 1   
    15     8    19 1   
    16     9    13 1   
    17     9    20 1   
    18     9    21 1   
    19    10    11 1   
    20    10    12 1   
    21    10    13 1   
    22    13    22 1   
@<TRIPOS>SUBSTRUCTURE
     1 IOY         1 TEMP              0 ****  ****    0 ROOT
