@<TRIPOS>MOLECULE
IOZ
   46    49     1     0     0
SMALL
No Charge or Current Charge


@<TRIPOS>ATOM
      1 C02         92.5270    -9.2900    12.7380 cc         1 IOZ       0.530300
      2 C05         94.0090   -12.7220     8.2970 cc         1 IOZ       0.691400
      3 C10         91.8630    -7.4770    16.6090 cc         1 IOZ       0.278900
      4 C13         92.7990    -7.4370    15.5720 cd         1 IOZ      -0.086300
      5 C15         91.3950    -9.0500    14.4820 cd         1 IOZ      -0.122000
      6 C19         94.0420    -6.5760    15.5710 c3         1 IOZ      -0.041800
      7 C20         96.1910   -11.8130     7.2770 c3         1 IOZ       0.079900
      8 C21         94.5530   -14.4910     6.7290 c5         1 IOZ       0.224300
      9 C22         93.7260   -15.8050     6.7020 c5         1 IOZ      -0.095900
     10 C23         92.2960   -15.2780     6.4100 c5         1 IOZ      -0.095900
     11 C24         92.2080   -14.1100     7.4210 c5         1 IOZ       0.224300
     12 N01         93.5610   -13.5150     7.2560 nh         1 IOZ      -0.793300
     13 C03         94.1530   -11.6390    10.1090 cd         1 IOZ       0.557300
     14 N04         93.3410   -12.4990     9.4040 nd         1 IOZ      -0.769000
     15 N06         95.1720   -11.9680     8.3300 na         1 IOZ      -0.103700
     16 N07         95.2710   -11.2790     9.4990 nc         1 IOZ      -0.547800
     17 C08         93.7820   -11.1050    11.4650 c3         1 IOZ      -0.090700
     18 C09         92.9050    -9.8310    11.3880 c3         1 IOZ      -0.077700
     19 N11         90.7100    -8.2640    16.6290 nc         1 IOZ      -0.650000
     20 C12         90.4810    -9.0430    15.5730 cd         1 IOZ       0.401300
     21 N14         92.5010    -8.2720    14.4990 na         1 IOZ       0.308400
     22 N16         91.3770    -9.7270    13.3520 nc         1 IOZ      -0.381300
     23 N17         93.2680    -8.3970    13.3840 nd         1 IOZ      -0.593100
     24 H29         91.9870    -6.8700    17.4960 h4         1 IOZ       0.037100
     25 H31         88.6650    -9.7530    16.5230 hc         1 IOZ       0.063367
     26 H32         88.5840    -9.6390    14.7570 hc         1 IOZ       0.063367
     27 H30         89.4960   -10.9530    15.5190 hc         1 IOZ       0.063367
     28 H34         94.9480    -7.1900    15.4960 hc         1 IOZ       0.063367
     29 H33         94.0380    -5.8770    14.7260 hc         1 IOZ       0.063367
     30 H35         94.1200    -5.9830    16.4900 hc         1 IOZ       0.063367
     31 H36         96.7290   -10.8670     7.4120 h1         1 IOZ       0.053700
     32 H38         96.9050   -12.6440     7.3310 h1         1 IOZ       0.053700
     33 H37         95.7070   -11.8100     6.2930 h1         1 IOZ       0.053700
     34 H39         95.4460   -14.5960     7.3610 h1         1 IOZ       0.052200
     35 H42         94.0860   -16.5080     5.9430 hc         1 IOZ       0.055700
     36 H41         93.7700   -16.3170     7.6710 hc         1 IOZ       0.055700
     37 H44         92.1990   -14.9230     5.3770 hc         1 IOZ       0.055700
     38 H43         91.5210   -16.0340     6.5770 hc         1 IOZ       0.055700
     39 H45         92.0350   -14.4920     8.4380 h1         1 IOZ       0.052200
     40 H46         91.4030   -13.4050     7.1690 h1         1 IOZ       0.052200
     41 H26         93.2460   -11.8780    12.0270 hc         1 IOZ       0.068700
     42 H25         94.6910   -10.8830    12.0360 hc         1 IOZ       0.068700
     43 H28         91.9960   -10.0520    10.8170 hc         1 IOZ       0.073200
     44 H27         93.4410    -9.0580    10.8250 hc         1 IOZ       0.073200
     45 C18         89.2390    -9.8910    15.5990 c3         1 IOZ      -0.140400
     46 H40         94.8780   -14.2050     5.7190 h1         1 IOZ       0.052200
@<TRIPOS>BOND
     1     1    18 1   
     2     1    22 1   
     3     1    23 2   
     4     2    12 1   
     5     2    14 2   
     6     2    15 1   
     7     3     4 2   
     8     3    19 1   
     9     3    24 1   
    10     4     6 1   
    11     4    21 1   
    12     5    20 1   
    13     5    21 1   
    14     5    22 2   
    15     6    28 1   
    16     6    29 1   
    17     6    30 1   
    18     7    15 1   
    19     7    31 1   
    20     7    32 1   
    21     7    33 1   
    22     8     9 1   
    23     8    12 1   
    24     8    34 1   
    25     8    46 1   
    26     9    10 1   
    27     9    35 1   
    28     9    36 1   
    29    10    11 1   
    30    10    37 1   
    31    10    38 1   
    32    11    12 1   
    33    11    39 1   
    34    11    40 1   
    35    13    14 1   
    36    13    16 2   
    37    13    17 1   
    38    15    16 1   
    39    17    18 1   
    40    17    41 1   
    41    17    42 1   
    42    18    43 1   
    43    18    44 1   
    44    19    20 2   
    45    20    45 1   
    46    21    23 1   
    47    25    45 1   
    48    26    45 1   
    49    27    45 1   
@<TRIPOS>SUBSTRUCTURE
     1 IOZ         1 TEMP              0 ****  ****    0 ROOT
