@<TRIPOS>MOLECULE
IOZ
   46    49     1     0     0
SMALL
bcc


@<TRIPOS>ATOM
      1 C02         92.5080    -9.5300    12.8020 cc         1 IOZ       0.530300
      2 C05         94.1330   -12.8830     8.5530 cc         1 IOZ       0.691400
      3 C10         91.6250    -7.1050    16.2650 cc         1 IOZ       0.344200
      4 C13         92.2550    -6.9860    15.0610 cd         1 IOZ      -0.100900
      5 C15         91.6640    -9.2810    14.6990 cd         1 IOZ      -0.136600
      6 C19         92.9140    -5.7670    14.5320 c3         1 IOZ      -0.041800
      7 C20         96.6320   -12.9580     8.1480 c3         1 IOZ       0.050600
      8 C21         94.3650   -14.4920     6.6760 c5         1 IOZ       0.224300
      9 C22         93.2170   -15.2470     6.0120 c5         1 IOZ      -0.095900
     10 C23         92.1570   -14.1700     5.8110 c5         1 IOZ      -0.095900
     11 C24         92.2650   -13.3610     7.0940 c5         1 IOZ       0.224300
     12 N01         93.6950   -13.3940     7.3800 nh         1 IOZ      -0.793300
     13 C03         94.2320   -12.0050    10.4570 cd         1 IOZ       0.557300
     14 N04         93.3530   -12.4220     9.5170 nd         1 IOZ      -0.769000
     15 N06         95.4240   -12.7350     8.9060 na         1 IOZ      -0.074400
     16 N07         95.4870   -12.1790    10.1410 nc         1 IOZ      -0.547800
     17 C08         93.8010   -11.3960    11.7450 c3         1 IOZ      -0.090700
     18 C09         92.9320   -10.1540    11.5200 c3         1 IOZ      -0.077700
     19 N11         91.0280    -8.2360    16.7070 nc         1 IOZ      -0.650000
     20 C12         91.0310    -9.3100    15.9660 cd         1 IOZ       0.466600
     21 N14         92.2490    -8.1160    14.3010 na         1 IOZ       0.207000
     22 N16         91.8230   -10.1900    13.7490 nc         1 IOZ      -0.381300
     23 N17         92.7910    -8.2680    13.0950 nd         1 IOZ      -0.593100
     24 H29         91.5880    -6.2470    16.9250 h4         1 IOZ       0.037100
     25 H31         89.8980   -10.4050    17.3980 hc         1 IOZ       0.063367
     26 H32         89.6370   -10.9160    15.7210 hc         1 IOZ       0.063367
     27 H30         91.1180   -11.3660    16.5470 hc         1 IOZ       0.063367
     28 H34         93.9710    -5.9450    14.3300 hc         1 IOZ       0.063367
     29 H33         92.4520    -5.4460    13.5980 hc         1 IOZ       0.063367
     30 H35         92.8310    -4.9580    15.2540 hc         1 IOZ       0.063367
     31 H36         97.4170   -12.3480     8.5840 h1         1 IOZ       0.053700
     32 H38         96.9450   -14.0010     8.1700 h1         1 IOZ       0.053700
     33 H37         96.4930   -12.6490     7.1140 h1         1 IOZ       0.053700
     34 H39         94.9270   -15.1260     7.3640 h1         1 IOZ       0.052200
     35 H42         93.5270   -15.7310     5.0860 hc         1 IOZ       0.055700
     36 H41         92.8390   -16.0220     6.6820 hc         1 IOZ       0.055700
     37 H44         92.3990   -13.5490     4.9460 hc         1 IOZ       0.055700
     38 H43         91.1560   -14.5730     5.6640 hc         1 IOZ       0.055700
     39 H45         91.6850   -13.8270     7.8980 h1         1 IOZ       0.052200
     40 H46         91.9130   -12.3340     6.9850 h1         1 IOZ       0.052200
     41 H26         93.2370   -12.1280    12.3290 hc         1 IOZ       0.068700
     42 H25         94.6850   -11.1330    12.3280 hc         1 IOZ       0.068700
     43 H28         92.0440   -10.4330    10.9480 hc         1 IOZ       0.073200
     44 H27         93.4750    -9.4160    10.9300 hc         1 IOZ       0.073200
     45 C18         90.3820   -10.5670    16.4380 c3         1 IOZ      -0.140400
     46 H40         95.0620   -14.1100     5.9260 h1         1 IOZ       0.052200
@<TRIPOS>BOND
     1     1    18 1   
     2     1    22 1   
     3     1    23 2   
     4     2    12 1   
     5     2    14 2   
     6     2    15 1   
     7     3     4 2   
     8     3    19 1   
     9     3    24 1   
    10     4     6 1   
    11     4    21 1   
    12     5    20 1   
    13     5    21 1   
    14     5    22 2   
    15     6    28 1   
    16     6    29 1   
    17     6    30 1   
    18     7    15 1   
    19     7    31 1   
    20     7    32 1   
    21     7    33 1   
    22     8     9 1   
    23     8    12 1   
    24     8    34 1   
    25     8    46 1   
    26     9    10 1   
    27     9    35 1   
    28     9    36 1   
    29    10    11 1   
    30    10    37 1   
    31    10    38 1   
    32    11    12 1   
    33    11    39 1   
    34    11    40 1   
    35    13    14 1   
    36    13    16 2   
    37    13    17 1   
    38    15    16 1   
    39    17    18 1   
    40    17    41 1   
    41    17    42 1   
    42    18    43 1   
    43    18    44 1   
    44    19    20 2   
    45    20    45 1   
    46    21    23 1   
    47    25    45 1   
    48    26    45 1   
    49    27    45 1   
@<TRIPOS>SUBSTRUCTURE
     1 IOZ         1 TEMP              0 ****  ****    0 ROOT
