@<TRIPOS>MOLECULE
IP0
   22    22     1     0     0
SMALL
bcc


@<TRIPOS>ATOM
      1 C8          -2.4040     0.4400     1.2200 c3         1 IP0      -0.084100
      2 C7          -1.7130    -0.2010     0.0170 c3         1 IP0      -0.017400
      3 C9          -2.3520     0.2630    -1.2940 c3         1 IP0      -0.084100
      4 C2          -0.2250     0.0740     0.0120 ca         1 IP0      -0.096300
      5 C3           0.2500     1.3850     0.0620 ca         1 IP0      -0.115000
      6 C4           1.6060     1.6740     0.0470 ca         1 IP0      -0.136000
      7 C5           2.5280     0.6380    -0.0230 ca         1 IP0      -0.119000
      8 C6           2.0810    -0.6720    -0.0840 ca         1 IP0      -0.146000
      9 C1           0.7180    -0.9550    -0.0680 ca         1 IP0       0.103100
     10 O1           0.3270    -2.2690    -0.0800 oh         1 IP0      -0.527100
     11 H8          -2.3670     1.5300     1.1750 hc         1 IP0       0.034533
     12 H8A         -3.4560     0.1530     1.2530 hc         1 IP0       0.034533
     13 H8B         -1.9420     0.1290     2.1580 hc         1 IP0       0.034533
     14 H7          -1.8590    -1.2800     0.0940 hc         1 IP0       0.059700
     15 H9          -2.2500     1.3420    -1.4240 hc         1 IP0       0.034533
     16 H9A         -1.8880    -0.2210    -2.1550 hc         1 IP0       0.034533
     17 H9B         -3.4170     0.0270    -1.3090 hc         1 IP0       0.034533
     18 H3          -0.4590     2.2020     0.1220 ha         1 IP0       0.131000
     19 H4           1.9400     2.7030     0.0920 ha         1 IP0       0.132000
     20 H5           3.5900     0.8470    -0.0350 ha         1 IP0       0.132000
     21 H6           2.7880    -1.4910    -0.1320 ha         1 IP0       0.140000
     22 HO1          0.0570    -2.5270    -0.9680 ho         1 IP0       0.419000
@<TRIPOS>BOND
     1     1     2 1   
     2     1    11 1   
     3     1    12 1   
     4     1    13 1   
     5     2     3 1   
     6     2     4 1   
     7     2    14 1   
     8     3    15 1   
     9     3    16 1   
    10     3    17 1   
    11     4     5 ar  
    12     4     9 ar  
    13     5     6 ar  
    14     5    18 1   
    15     6     7 ar  
    16     6    19 1   
    17     7     8 ar  
    18     7    20 1   
    19     8     9 ar  
    20     8    21 1   
    21     9    10 1   
    22    10    22 1   
@<TRIPOS>SUBSTRUCTURE
     1 IP0         1 TEMP              0 ****  ****    0 ROOT
