@<TRIPOS>MOLECULE
IP0
   22    22     1     0     0
SMALL
No Charge or Current Charge


@<TRIPOS>ATOM
      1 C8          -2.4010     0.2940     1.1800 c3         1 IP0      -0.084100
      2 C7          -1.6980    -0.2250    -0.0960 c3         1 IP0      -0.017400
      3 C9          -2.3480     0.3500    -1.3750 c3         1 IP0      -0.084100
      4 C2          -0.1850     0.0580    -0.0580 ca         1 IP0      -0.096300
      5 C3           0.2610     1.3990    -0.0200 ca         1 IP0      -0.097000
      6 C4           1.6320     1.7040     0.0150 ca         1 IP0      -0.118000
      7 C5           2.5820     0.6730     0.0120 ca         1 IP0      -0.101000
      8 C6           2.1570    -0.6640    -0.0260 ca         1 IP0      -0.128000
      9 C1           0.7870    -0.9780    -0.0610 ca         1 IP0       0.103100
     10 O1           0.4340    -2.2970    -0.0970 oh         1 IP0      -0.566100
     11 H8          -2.3370     1.3860     1.2540 hc         1 IP0       0.034533
     12 H8A         -3.4610     0.0150     1.1780 hc         1 IP0       0.034533
     13 H8B         -1.9380    -0.1380     2.0750 hc         1 IP0       0.034533
     14 H7          -1.8870    -1.3040    -0.1230 hc         1 IP0       0.059700
     15 H9          -2.2830     1.4450    -1.3980 hc         1 IP0       0.034533
     16 H9A         -1.8490    -0.0420    -2.2690 hc         1 IP0       0.034533
     17 H9B         -3.4080     0.0720    -1.4280 hc         1 IP0       0.034533
     18 H3          -0.4570     2.2150    -0.0170 ha         1 IP0       0.113000
     19 H4           1.9570     2.7420     0.0440 ha         1 IP0       0.114000
     20 H5           3.6440     0.9080     0.0380 ha         1 IP0       0.114000
     21 H6           2.8940    -1.4630    -0.0290 ha         1 IP0       0.122000
     22 HO1         -0.5430    -2.3580    -0.1190 ho         1 IP0       0.458000
@<TRIPOS>BOND
     1     1     2 1   
     2     1    11 1   
     3     1    12 1   
     4     1    13 1   
     5     2     3 1   
     6     2     4 1   
     7     2    14 1   
     8     3    15 1   
     9     3    16 1   
    10     3    17 1   
    11     4     5 ar  
    12     4     9 ar  
    13     5     6 ar  
    14     5    18 1   
    15     6     7 ar  
    16     6    19 1   
    17     7     8 ar  
    18     7    20 1   
    19     8     9 ar  
    20     8    21 1   
    21     9    10 1   
    22    10    22 1   
@<TRIPOS>SUBSTRUCTURE
     1 IP0         1 TEMP              0 ****  ****    0 ROOT
