@<TRIPOS>MOLECULE
IP1
   43    44     1     0     0
SMALL
abcg2


@<TRIPOS>ATOM
      1 C1           0.5950     0.5830    -7.3490 c          1 IP1       0.724000
      2 C2          -0.4150     0.0920    -6.2890 c3         1 IP1       0.023500
      3 C3           0.3120    -0.0070    -4.9370 c3         1 IP1      -0.102400
      4 C4          -0.6060    -0.3360    -3.7670 c3         1 IP1      -0.070400
      5 C7           0.1500    -0.3640    -2.4440 c3         1 IP1      -0.155400
      6 C10         -0.7270    -0.7240    -1.2670 c          1 IP1       0.606100
      7 N11         -0.3860    -0.1190    -0.1030 ns         1 IP1      -0.482900
      8 C12         -1.0450    -0.3620     1.1300 cy         1 IP1       0.008700
      9 C13         -1.2330     0.8490     2.0560 c          1 IP1       0.532000
     10 N14         -1.0610    -1.1350    -6.7270 n8         1 IP1      -0.991200
     11 O15         -1.6570    -1.5090    -1.3510 o          1 IP1      -0.616100
     12 C16         -0.2530    -0.9410     2.3300 cy         1 IP1       0.195700
     13 S17          1.5410    -0.7120     2.3010 ss         1 IP1      -0.577000
     14 O18         -1.6010     1.9860     1.9170 o          1 IP1      -0.507000
     15 O19          0.8980     1.7930    -7.3000 o          1 IP1      -0.737500
     16 O20          1.0580    -0.2660    -8.1360 o          1 IP1      -0.737500
     17 N29         -0.7260     0.1780     3.1310 nj         1 IP1      -0.311800
     18 C30          0.1630     0.7300     4.1350 c5         1 IP1      -0.044300
     19 C31         -0.4210     0.7520     5.5670 c          1 IP1       0.734000
     20 C32          1.4810    -0.1000     4.0510 c5         1 IP1       0.155000
     21 C33          1.4800    -1.3050     4.9890 c3         1 IP1      -0.075600
     22 C37          2.7040     0.7690     4.3010 c3         1 IP1      -0.075600
     23 O42          0.2160     1.4550     6.3750 o          1 IP1      -0.711000
     24 O43         -1.4400     0.0790     5.7790 o          1 IP1      -0.711000
     25 H2          -1.1900     0.8610    -6.1840 h1         1 IP1       0.043700
     26 H32          0.8110     0.9460    -4.7390 hc         1 IP1       0.041200
     27 H31          1.1020    -0.7650    -5.0090 hc         1 IP1       0.041200
     28 H42A        -1.0880    -1.3040    -3.9190 hc         1 IP1       0.042700
     29 H41         -1.4080     0.4070    -3.7150 hc         1 IP1       0.042700
     30 H72          0.6470     0.5930    -2.2710 hc         1 IP1       0.055700
     31 H71          0.9480    -1.1140    -2.4920 hc         1 IP1       0.055700
     32 H11          0.4080     0.5020    -0.1000 hn         1 IP1       0.327500
     33 H12         -1.9700    -0.9090     0.9510 h1         1 IP1       0.110700
     34 H142        -0.3420    -1.8000    -6.9860 hn         1 IP1       0.376000
     35 H141        -1.5830    -1.5520    -5.9670 hn         1 IP1       0.376000
     36 H16         -0.5410    -1.9320     2.6800 h2         1 IP1       0.102700
     37 H30          0.3920     1.7600     3.8430 h1         1 IP1       0.059700
     38 H333         2.3600    -1.9230     4.8110 hc         1 IP1       0.042033
     39 H332         1.5140    -0.9740     6.0280 hc         1 IP1       0.042033
     40 H331         0.5970    -1.9320     4.8670 hc         1 IP1       0.042033
     41 H373         3.6230     0.1860     4.2330 hc         1 IP1       0.042033
     42 H372         2.7610     1.5910     3.5870 hc         1 IP1       0.042033
     43 H371         2.6470     1.1920     5.3040 hc         1 IP1       0.042033
@<TRIPOS>BOND
     1     1     2 1   
     2     1    15 1   
     3     1    16 1   
     4     2     3 1   
     5     2    10 1   
     6     2    25 1   
     7     3     4 1   
     8     3    26 1   
     9     3    27 1   
    10     4     5 1   
    11     4    28 1   
    12     4    29 1   
    13     5     6 1   
    14     5    30 1   
    15     5    31 1   
    16     6     7 1   
    17     6    11 2   
    18     7     8 1   
    19     7    32 1   
    20     8     9 1   
    21     8    12 1   
    22     8    33 1   
    23     9    14 2   
    24     9    17 1   
    25    10    34 1   
    26    10    35 1   
    27    12    13 1   
    28    12    17 1   
    29    12    36 1   
    30    13    20 1   
    31    17    18 1   
    32    18    19 1   
    33    18    20 1   
    34    18    37 1   
    35    19    23 1   
    36    19    24 1   
    37    20    21 1   
    38    20    22 1   
    39    21    38 1   
    40    21    39 1   
    41    21    40 1   
    42    22    41 1   
    43    22    42 1   
    44    22    43 1   
@<TRIPOS>SUBSTRUCTURE
     1 IP1         1 TEMP              0 ****  ****    0 ROOT
