@<TRIPOS>MOLECULE
IP1
   43    44     1     0     0
SMALL
No Charge or Current Charge


@<TRIPOS>ATOM
      1 C1           0.2210     0.7560    -7.4560 c          1 IP1       0.724000
      2 C2          -0.5810     0.0760    -6.2650 c3         1 IP1       0.023500
      3 C3           0.3370    -0.1360    -5.0310 c3         1 IP1      -0.102400
      4 C4          -0.4140    -0.4680    -3.7170 c3         1 IP1      -0.070400
      5 C7           0.5330    -0.5990    -2.5000 c3         1 IP1      -0.155400
      6 C10         -0.2390    -0.9210    -1.2150 c          1 IP1       0.606100
      7 N11         -0.3480     0.1200    -0.3210 ns         1 IP1      -0.482900
      8 C12         -0.9830     0.0040     0.9820 cy         1 IP1       0.008700
      9 C13         -1.0340     1.2410     1.9370 c          1 IP1       0.532000
     10 N14         -1.3140    -1.2010    -6.5930 n8         1 IP1      -0.991200
     11 O15         -0.7040    -2.0290    -0.9830 o          1 IP1      -0.616100
     12 C16         -0.2190    -0.6810     2.1720 cy         1 IP1       0.195700
     13 S17          1.6140    -0.5140     2.3590 ss         1 IP1      -0.577000
     14 O18         -1.2720     2.4360     1.8190 o          1 IP1      -0.507000
     15 O19         -0.1080     1.8820    -7.8100 o          1 IP1      -0.737500
     16 O20          1.0920     0.1070    -8.0240 o          1 IP1      -0.737500
     17 N29         -0.6370     0.4460     3.0150 nj         1 IP1      -0.311800
     18 C30          0.1670     0.8080     4.1950 c5         1 IP1      -0.044300
     19 C31         -0.5840     0.6950     5.5590 c          1 IP1       0.734000
     20 C32          1.4400    -0.1150     4.1670 c5         1 IP1       0.155000
     21 C33          1.3070    -1.4560     4.9400 c3         1 IP1      -0.075600
     22 C37          2.7210     0.6130     4.6370 c3         1 IP1      -0.075600
     23 O42         -0.2270     1.4180     6.4790 o          1 IP1      -0.711000
     24 O43         -1.5680    -0.0270     5.6560 o          1 IP1      -0.711000
     25 H2          -1.3470     0.8060    -5.9660 h1         1 IP1       0.043700
     26 H32          0.9150     0.7830    -4.8730 hc         1 IP1       0.041200
     27 H31          1.0670    -0.9270    -5.2470 hc         1 IP1       0.041200
     28 H42A        -0.9710    -1.4060    -3.8340 hc         1 IP1       0.042700
     29 H41         -1.1510     0.3190    -3.5140 hc         1 IP1       0.042700
     30 H72          1.0790     0.3440    -2.3820 hc         1 IP1       0.055700
     31 H71          1.2400    -1.4140    -2.6960 hc         1 IP1       0.055700
     32 H11          0.0850     0.9940    -0.5970 hn         1 IP1       0.327500
     33 H12         -1.9880    -0.4090     0.8420 h1         1 IP1       0.110700
     34 H142        -0.6350    -1.8840    -6.9500 hn         1 IP1       0.376000
     35 H141        -1.6550    -1.6230    -5.7230 hn         1 IP1       0.376000
     36 H16         -0.5640    -1.6700     2.4920 h2         1 IP1       0.102700
     37 H30          0.4570     1.8590     4.0710 h1         1 IP1       0.059700
     38 H333         2.1640    -2.1110     4.7420 hc         1 IP1       0.042033
     39 H332         1.2660    -1.2940     6.0240 hc         1 IP1       0.042033
     40 H331         0.4030    -2.0040     4.6520 hc         1 IP1       0.042033
     41 H373         3.6080    -0.0200     4.5130 hc         1 IP1       0.042033
     42 H372         2.8880     1.5310     4.0620 hc         1 IP1       0.042033
     43 H371         2.6540     0.8910     5.6950 hc         1 IP1       0.042033
@<TRIPOS>BOND
     1     1     2 1   
     2     1    15 1   
     3     1    16 1   
     4     2     3 1   
     5     2    10 1   
     6     2    25 1   
     7     3     4 1   
     8     3    26 1   
     9     3    27 1   
    10     4     5 1   
    11     4    28 1   
    12     4    29 1   
    13     5     6 1   
    14     5    30 1   
    15     5    31 1   
    16     6     7 1   
    17     6    11 2   
    18     7     8 1   
    19     7    32 1   
    20     8     9 1   
    21     8    12 1   
    22     8    33 1   
    23     9    14 2   
    24     9    17 1   
    25    10    34 1   
    26    10    35 1   
    27    12    13 1   
    28    12    17 1   
    29    12    36 1   
    30    13    20 1   
    31    17    18 1   
    32    18    19 1   
    33    18    20 1   
    34    18    37 1   
    35    19    23 1   
    36    19    24 1   
    37    20    21 1   
    38    20    22 1   
    39    21    38 1   
    40    21    39 1   
    41    21    40 1   
    42    22    41 1   
    43    22    42 1   
    44    22    43 1   
@<TRIPOS>SUBSTRUCTURE
     1 IP1         1 TEMP              0 ****  ****    0 ROOT
