@<TRIPOS>MOLECULE
IP2
   30    30     1     0     0
SMALL
No Charge or Current Charge


@<TRIPOS>ATOM
      1 C1          80.7940    41.3910   -22.4660 c6         1 IP2       0.169300
      2 C2          80.1850    39.9650   -22.2640 c6         1 IP2       0.169300
      3 C3          81.2780    38.8620   -22.4170 c6         1 IP2       0.128300
      4 C4          82.5790    39.1570   -21.5510 c6         1 IP2       0.216800
      5 C5          83.1030    40.6330   -21.7200 c6         1 IP2       0.216800
      6 C6          81.9450    41.6680   -21.4680 c6         1 IP2       0.128300
      7 O1          79.8530    42.4620   -22.3210 oh         1 IP2      -0.765000
      8 O2          79.5620    39.7520   -20.9890 oh         1 IP2      -0.765000
      9 O3          80.6540    37.5910   -22.0880 oh         1 IP2      -0.901500
     10 O4          83.6500    38.2170   -21.8460 os         1 IP2      -0.573400
     11 O5          84.2410    40.8760   -20.8500 os         1 IP2      -0.573400
     12 O6          82.3110    43.0740   -21.5800 oh         1 IP2      -0.901500
     13 P4          83.6840    36.7370   -21.2210 p5         1 IP2       1.316400
     14 O41         82.5050    35.9860   -21.7290 o          1 IP2      -0.920500
     15 O42         83.6450    36.8040   -19.7370 o          1 IP2      -0.920500
     16 O43         84.9300    36.0510   -21.6590 o          1 IP2      -0.920500
     17 P5          85.4030    41.8900   -21.3020 p5         1 IP2       1.316400
     18 O51         84.7880    43.2270   -21.5090 o          1 IP2      -0.920500
     19 O52         86.4240    41.9750   -20.2240 o          1 IP2      -0.920500
     20 O53         86.0380    41.4200   -22.5620 o          1 IP2      -0.920500
     21 H1          81.2130    41.4300   -23.4820 h1         1 IP2      -0.004800
     22 H2          79.4380    39.8050   -23.0560 h1         1 IP2      -0.004800
     23 H3          81.5880    38.8520   -23.4730 h1         1 IP2       0.018700
     24 H4          82.3040    39.0380   -20.4920 h1         1 IP2       0.038200
     25 H5          83.4320    40.7450   -22.7640 h1         1 IP2       0.038200
     26 H6          81.5690    41.4880   -20.4490 h1         1 IP2       0.018700
     27 HO1         80.4720    43.1580   -21.9690 ho         1 IP2       0.507000
     28 HO2         79.6380    38.7630   -20.9320 ho         1 IP2       0.507000
     29 HO3         81.4240    36.9090   -21.9740 ho         1 IP2       0.613000
     30 HO6         83.3430    43.1220   -21.5300 ho         1 IP2       0.613000
@<TRIPOS>BOND
     1     1     2 1   
     2     1     6 1   
     3     1     7 1   
     4     1    21 1   
     5     2     3 1   
     6     2     8 1   
     7     2    22 1   
     8     3     4 1   
     9     3     9 1   
    10     3    23 1   
    11     4     5 1   
    12     4    10 1   
    13     4    24 1   
    14     5     6 1   
    15     5    11 1   
    16     5    25 1   
    17     6    12 1   
    18     6    26 1   
    19     7    27 1   
    20     8    28 1   
    21     9    29 1   
    22    10    13 1   
    23    11    17 1   
    24    12    30 1   
    25    13    14 1   
    26    13    15 1   
    27    13    16 1   
    28    17    18 1   
    29    17    19 1   
    30    17    20 1   
@<TRIPOS>SUBSTRUCTURE
     1 IP2         1 TEMP              0 ****  ****    0 ROOT
