@<TRIPOS>MOLECULE
IP2
   30    30     1     0     0
SMALL
abcg2


@<TRIPOS>ATOM
      1 C1          80.7570    41.3550   -22.4540 c6         1 IP2       0.169300
      2 C2          80.1830    39.9740   -22.2240 c6         1 IP2       0.169300
      3 C3          81.2630    38.9180   -22.4650 c6         1 IP2       0.128300
      4 C4          82.5270    39.1720   -21.6320 c6         1 IP2       0.216800
      5 C5          83.0550    40.6030   -21.7720 c6         1 IP2       0.216800
      6 C6          81.9520    41.6430   -21.5580 c6         1 IP2       0.128300
      7 O1          79.7390    42.3420   -22.2770 oh         1 IP2      -0.765000
      8 O2          79.6690    39.8540   -20.8960 oh         1 IP2      -0.765000
      9 O3          80.6750    37.6630   -22.1580 oh         1 IP2      -0.901500
     10 O4          83.5540    38.2790   -22.0450 os         1 IP2      -0.573400
     11 O5          84.0850    40.7800   -20.8080 os         1 IP2      -0.573400
     12 O6          82.3750    42.9650   -21.8550 oh         1 IP2      -0.901500
     13 P4          83.8380    36.8450   -21.2310 p5         1 IP2       1.316400
     14 O41         82.5440    36.0300   -21.4400 o          1 IP2      -0.920500
     15 O42         84.0780    37.1990   -19.7730 o          1 IP2      -0.920500
     16 O43         85.0350    36.2880   -21.9770 o          1 IP2      -0.920500
     17 P5          85.4410    41.7060   -21.1330 p5         1 IP2       1.316400
     18 O51         84.8950    43.1370   -21.3180 o          1 IP2      -0.920500
     19 O52         86.2610    41.5310   -19.8700 o          1 IP2      -0.920500
     20 O53         86.0620    41.1470   -22.4020 o          1 IP2      -0.920500
     21 H1          81.1080    41.3850   -23.4950 h1         1 IP2      -0.004800
     22 H2          79.3700    39.8060   -22.9420 h1         1 IP2      -0.004800
     23 H3          81.5490    38.9570   -23.5250 h1         1 IP2       0.018700
     24 H4          82.2920    39.0060   -20.5760 h1         1 IP2       0.038200
     25 H5          83.4660    40.7220   -22.7810 h1         1 IP2       0.038200
     26 H6          81.6320    41.5800   -20.5100 h1         1 IP2       0.018700
     27 HO1         80.1990    43.1930   -22.2650 ho         1 IP2       0.507000
     28 HO2         79.6360    38.8980   -20.7330 ho         1 IP2       0.507000
     29 HO3         81.3970    37.0030   -21.8930 ho         1 IP2       0.613000
     30 HO6         83.3550    43.0680   -21.6160 ho         1 IP2       0.613000
@<TRIPOS>BOND
     1     1     2 1   
     2     1     6 1   
     3     1     7 1   
     4     1    21 1   
     5     2     3 1   
     6     2     8 1   
     7     2    22 1   
     8     3     4 1   
     9     3     9 1   
    10     3    23 1   
    11     4     5 1   
    12     4    10 1   
    13     4    24 1   
    14     5     6 1   
    15     5    11 1   
    16     5    25 1   
    17     6    12 1   
    18     6    26 1   
    19     7    27 1   
    20     8    28 1   
    21     9    29 1   
    22    10    13 1   
    23    11    17 1   
    24    12    30 1   
    25    13    14 1   
    26    13    15 1   
    27    13    16 1   
    28    17    18 1   
    29    17    19 1   
    30    17    20 1   
@<TRIPOS>SUBSTRUCTURE
     1 IP2         1 TEMP              0 ****  ****    0 ROOT
