@<TRIPOS>MOLECULE
IP5
   39    39     1     0     0
SMALL
abcg2


@<TRIPOS>ATOM
      1 O16        -14.6510   -20.0790   -27.1850 oh         1 IP5      -0.800000
      2 C6         -15.8570   -20.7390   -26.8190 c6         1 IP5       0.145300
      3 C1         -16.6350   -19.8590   -25.8470 c6         1 IP5       0.218800
      4 O11        -15.8510   -19.5820   -24.6940 os         1 IP5      -0.610400
      5 P1         -15.8660   -18.0320   -24.0450 p5         1 IP5       1.334900
      6 O41        -17.3240   -17.6940   -23.7440 o          1 IP5      -0.983500
      7 O31        -14.9950   -18.2130   -22.8050 o          1 IP5      -0.983500
      8 O21        -15.2540   -17.1220   -25.1100 o          1 IP5      -0.983500
      9 C5         -16.6980   -21.0700   -28.0630 c6         1 IP5       0.218800
     10 O15        -16.0440   -22.0840   -28.8280 os         1 IP5      -0.610400
     11 P5         -15.0470   -21.7210   -30.1160 p5         1 IP5       1.334900
     12 O45        -14.7490   -23.0940   -30.6900 o          1 IP5      -0.983500
     13 O35        -13.8190   -21.0410   -29.4780 o          1 IP5      -0.983500
     14 O25        -15.8160   -20.7860   -31.0380 o          1 IP5      -0.983500
     15 C4         -18.1250   -21.5520   -27.7690 c6         1 IP5       0.224300
     16 O14        -18.8460   -21.5820   -28.9910 os         1 IP5      -0.615400
     17 P4         -19.5860   -22.9420   -29.6390 p5         1 IP5       1.353900
     18 O44        -18.9050   -23.1220   -30.9950 o          1 IP5      -0.989500
     19 O34        -19.3400   -24.0920   -28.6650 o          1 IP5      -0.989500
     20 O24        -21.0560   -22.5430   -29.7660 o          1 IP5      -0.989500
     21 C3         -18.8130   -20.6360   -26.7520 c6         1 IP5       0.233300
     22 O13        -20.1190   -21.1130   -26.4690 os         1 IP5      -0.558400
     23 P3         -21.4070   -20.0460   -26.3660 p5         1 IP5       1.335900
     24 O43        -21.0850   -19.0740   -25.2330 o          1 IP5      -0.988500
     25 O33        -21.5090   -19.3590   -27.7280 o          1 IP5      -0.988500
     26 O23        -22.5620   -20.9960   -26.0610 o          1 IP5      -0.988500
     27 C2         -17.9660   -20.5180   -25.4810 c6         1 IP5       0.224300
     28 O12        -17.7390   -21.7920   -24.8890 os         1 IP5      -0.615400
     29 P2         -18.2920   -22.2650   -23.3800 p5         1 IP5       1.353900
     30 O22        -18.8700   -21.0250   -22.7050 o          1 IP5      -0.989500
     31 O32        -19.3330   -23.3500   -23.6650 o          1 IP5      -0.989500
     32 O42        -17.0360   -22.8120   -22.7020 o          1 IP5      -0.989500
     33 HO16       -14.3070   -20.4730   -28.0390 ho         1 IP5       0.473000
     34 H6         -15.6250   -21.6840   -26.3120 h1         1 IP5       0.025700
     35 H1         -16.8600   -18.9180   -26.3610 h1         1 IP5      -0.006300
     36 H5         -16.7790   -20.1580   -28.6660 h1         1 IP5      -0.006300
     37 H4         -18.0820   -22.5600   -27.3550 h1         1 IP5       0.084700
     38 H3         -18.8830   -19.6350   -27.1930 h1         1 IP5      -0.023300
     39 H2         -18.4830   -19.8780   -24.7720 h1         1 IP5       0.084700
@<TRIPOS>BOND
     1     1     2 1   
     2     1    33 1   
     3     2     3 1   
     4     2     9 1   
     5     2    34 1   
     6     3     4 1   
     7     3    27 1   
     8     3    35 1   
     9     4     5 1   
    10     5     6 1   
    11     5     7 1   
    12     5     8 1   
    13     9    10 1   
    14     9    15 1   
    15     9    36 1   
    16    10    11 1   
    17    11    12 1   
    18    11    13 1   
    19    11    14 1   
    20    15    16 1   
    21    15    21 1   
    22    15    37 1   
    23    16    17 1   
    24    17    18 1   
    25    17    19 1   
    26    17    20 1   
    27    21    22 1   
    28    21    27 1   
    29    21    38 1   
    30    22    23 1   
    31    23    24 1   
    32    23    25 1   
    33    23    26 1   
    34    27    28 1   
    35    27    39 1   
    36    28    29 1   
    37    29    30 1   
    38    29    31 1   
    39    29    32 1   
@<TRIPOS>SUBSTRUCTURE
     1 IP5         1 TEMP              0 ****  ****    0 ROOT
