@<TRIPOS>MOLECULE
IP5
   39    39     1     0     0
SMALL
No Charge or Current Charge


@<TRIPOS>ATOM
      1 O16        -14.5120   -20.3750   -27.0970 oh         1 IP5      -0.800000
      2 C6         -15.8440   -20.8880   -26.8160 c6         1 IP5       0.145300
      3 C1         -16.6350   -19.9770   -25.8020 c6         1 IP5       0.218800
      4 O11        -15.8360   -19.5770   -24.6520 os         1 IP5      -0.610400
      5 P1         -15.8870   -18.0490   -24.1350 p5         1 IP5       1.334900
      6 O41        -17.2710   -17.6720   -23.7410 o          1 IP5      -0.983500
      7 O31        -14.9930   -17.9050   -22.9510 o          1 IP5      -0.983500
      8 O21        -15.4080   -17.1210   -25.1970 o          1 IP5      -0.983500
      9 C5         -16.7040   -21.1030   -28.1240 c6         1 IP5       0.218800
     10 O15        -15.9870   -21.9090   -29.1000 os         1 IP5      -0.610400
     11 P5         -15.1240   -21.1980   -30.2580 p5         1 IP5       1.334900
     12 O45        -14.4250   -22.2380   -31.0610 o          1 IP5      -0.983500
     13 O35        -14.1080   -20.3180   -29.6250 o          1 IP5      -0.983500
     14 O25        -15.9950   -20.3920   -31.1550 o          1 IP5      -0.983500
     15 C4         -18.1440   -21.6770   -27.8000 c6         1 IP5       0.224300
     16 O14        -18.9390   -21.8400   -29.0150 os         1 IP5      -0.615400
     17 P4         -19.4850   -23.3030   -29.4330 p5         1 IP5       1.353900
     18 O44        -18.3640   -24.2650   -29.6160 o          1 IP5      -0.989500
     19 O34        -20.4170   -23.8430   -28.4060 o          1 IP5      -0.989500
     20 O24        -20.2230   -23.1880   -30.7230 o          1 IP5      -0.989500
     21 C3         -18.8520   -20.7320   -26.7500 c6         1 IP5       0.233300
     22 O13        -20.2460   -21.0560   -26.5080 os         1 IP5      -0.558400
     23 P3         -21.3320   -19.8630   -26.4250 p5         1 IP5       1.335900
     24 O43        -20.9750   -18.8960   -25.3520 o          1 IP5      -0.988500
     25 O33        -21.4180   -19.1380   -27.7230 o          1 IP5      -0.988500
     26 O23        -22.6760   -20.4330   -26.1200 o          1 IP5      -0.988500
     27 C2         -18.0050   -20.6520   -25.4290 c6         1 IP5       0.224300
     28 O12        -17.8110   -21.9840   -24.8570 os         1 IP5      -0.615400
     29 P2         -18.2400   -22.3490   -23.3450 p5         1 IP5       1.353900
     30 O22        -17.4620   -21.5580   -22.3540 o          1 IP5      -0.989500
     31 O32        -19.6950   -22.1250   -23.1310 o          1 IP5      -0.989500
     32 O42        -17.9500   -23.7920   -23.1160 o          1 IP5      -0.989500
     33 HO16       -14.4030   -20.3860   -28.1070 ho         1 IP5       0.473000
     34 H6         -15.7320   -21.8780   -26.3490 h1         1 IP5       0.025700
     35 H1         -16.8860   -19.0580   -26.3530 h1         1 IP5      -0.006300
     36 H5         -16.8610   -20.1060   -28.5620 h1         1 IP5      -0.006300
     37 H4         -18.0110   -22.6630   -27.3290 h1         1 IP5       0.084700
     38 H3         -18.8290   -19.7240   -27.1920 h1         1 IP5      -0.023300
     39 H2         -18.5300   -20.0110   -24.7060 h1         1 IP5       0.084700
@<TRIPOS>BOND
     1     1     2 1   
     2     1    33 1   
     3     2     3 1   
     4     2     9 1   
     5     2    34 1   
     6     3     4 1   
     7     3    27 1   
     8     3    35 1   
     9     4     5 1   
    10     5     6 1   
    11     5     7 1   
    12     5     8 1   
    13     9    10 1   
    14     9    15 1   
    15     9    36 1   
    16    10    11 1   
    17    11    12 1   
    18    11    13 1   
    19    11    14 1   
    20    15    16 1   
    21    15    21 1   
    22    15    37 1   
    23    16    17 1   
    24    17    18 1   
    25    17    19 1   
    26    17    20 1   
    27    21    22 1   
    28    21    27 1   
    29    21    38 1   
    30    22    23 1   
    31    23    24 1   
    32    23    25 1   
    33    23    26 1   
    34    27    28 1   
    35    27    39 1   
    36    28    29 1   
    37    29    30 1   
    38    29    31 1   
    39    29    32 1   
@<TRIPOS>SUBSTRUCTURE
     1 IP5         1 TEMP              0 ****  ****    0 ROOT
