@<TRIPOS>MOLECULE
IP6
   42    45     1     0     0
SMALL
abcg2


@<TRIPOS>ATOM
      1 N1           0.7240     2.2000    -6.6940 nv         1 IP6      -1.038900
      2 C2           1.6990     3.0990    -6.3240 ca         1 IP6       0.537900
      3 N3           2.1010     3.9880    -7.2100 nb         1 IP6      -0.719000
      4 C4           3.0270     4.8860    -6.8580 ca         1 IP6       0.336900
      5 C5           3.5950     4.9210    -5.6070 ca         1 IP6      -0.172000
      6 C6           3.1590     3.9960    -4.6530 ca         1 IP6      -0.120000
      7 C7           2.1920     3.0670    -4.9900 ca         1 IP6       0.193000
      8 N8           1.6980     2.0930    -4.1350 nu         1 IP6      -0.927200
      9 C9           2.1190     2.0840    -2.7500 c3         1 IP6       0.239100
     10 C10          1.5130     0.9070    -2.0350 ca         1 IP6      -0.105300
     11 C11          1.8410    -0.3910    -2.4220 ca         1 IP6      -0.087000
     12 C12          1.2930    -1.4730    -1.7530 ca         1 IP6      -0.116000
     13 C13          0.4100    -1.2730    -0.6990 ca         1 IP6      -0.093000
     14 C14          0.0600     0.0160    -0.3000 cp         1 IP6      -0.030000
     15 C15          0.6270     1.0960    -0.9840 ca         1 IP6      -0.094000
     16 C16         -0.8860     0.2370     0.8120 cp         1 IP6      -0.021000
     17 C17         -0.8450    -0.5980     1.9510 ca         1 IP6      -0.130000
     18 C18         -1.7080    -0.4250     3.0110 ca         1 IP6      -0.061000
     19 C19         -2.6580     0.6020     2.9600 ca         1 IP6      -0.094800
     20 C20         -3.6870     1.0650     3.8360 cc         1 IP6      -0.240200
     21 C21         -4.2870     2.1190     3.2090 cd         1 IP6      -0.161100
     22 N22         -3.6930     2.3390     2.0000 na         1 IP6      -0.223700
     23 C23         -2.6910     1.4310     1.8160 ca         1 IP6      -0.052200
     24 C24         -1.8190     1.2620     0.7450 ca         1 IP6      -0.115000
     25 HN11         0.8260     1.2700    -6.3140 hn         1 IP6       0.457000
     26 HN12         0.5490     2.1800    -7.6870 hn         1 IP6       0.457000
     27 H4           3.3240     5.5940    -7.6250 h4         1 IP6       0.017100
     28 H5           4.3510     5.6540    -5.3610 ha         1 IP6       0.121000
     29 H6           3.5750     4.0240    -3.6550 ha         1 IP6       0.117000
     30 HN8          0.7010     1.9550    -4.2310 hn         1 IP6       0.463000
     31 H91          1.8590     3.0130    -2.2260 h1         1 IP6       0.043700
     32 H92          3.2090     2.0020    -2.7180 h1         1 IP6       0.043700
     33 H11          2.5290    -0.5500    -3.2440 ha         1 IP6       0.121000
     34 H12          1.5470    -2.4810    -2.0540 ha         1 IP6       0.115000
     35 H13         -0.0230    -2.1310    -0.1990 ha         1 IP6       0.117000
     36 H15          0.3870     2.1070    -0.6740 ha         1 IP6       0.113000
     37 H17         -0.0990    -1.3810     2.0030 ha         1 IP6       0.113000
     38 H18         -1.6460    -1.0750     3.8760 ha         1 IP6       0.116000
     39 H20         -3.9490     0.6680     4.8040 ha         1 IP6       0.206000
     40 H21         -5.1060     2.7400     3.5370 h4         1 IP6       0.212000
     41 HN22        -3.9620     3.0560     1.3480 hn         1 IP6       0.349000
     42 H24         -1.8840     1.9020    -0.1270 ha         1 IP6       0.114000
@<TRIPOS>BOND
     1     1     2 1   
     2     1    25 1   
     3     1    26 1   
     4     2     3 ar  
     5     2     7 ar  
     6     3     4 ar  
     7     4     5 ar  
     8     4    27 1   
     9     5     6 ar  
    10     5    28 1   
    11     6     7 ar  
    12     6    29 1   
    13     7     8 1   
    14     8     9 1   
    15     8    30 1   
    16     9    10 1   
    17     9    31 1   
    18     9    32 1   
    19    10    11 ar  
    20    10    15 ar  
    21    11    12 ar  
    22    11    33 1   
    23    12    13 ar  
    24    12    34 1   
    25    13    14 ar  
    26    13    35 1   
    27    14    15 ar  
    28    14    16 1   
    29    15    36 1   
    30    16    17 ar  
    31    16    24 ar  
    32    17    18 ar  
    33    17    37 1   
    34    18    19 ar  
    35    18    38 1   
    36    19    20 1   
    37    19    23 ar  
    38    20    21 2   
    39    20    39 1   
    40    21    22 1   
    41    21    40 1   
    42    22    23 1   
    43    22    41 1   
    44    23    24 ar  
    45    24    42 1   
@<TRIPOS>SUBSTRUCTURE
     1 IP6         1 TEMP              0 ****  ****    0 ROOT
