@<TRIPOS>MOLECULE
IP6
   42    45     1     0     0
SMALL
No Charge or Current Charge


@<TRIPOS>ATOM
      1 N1           0.3380     2.4870    -6.5300 nv         1 IP6      -1.038900
      2 C2           1.3530     3.2830    -6.1130 ca         1 IP6       0.537900
      3 N3           1.6020     4.2010    -7.0500 nb         1 IP6      -0.719000
      4 C4           2.6120     5.0660    -6.8030 ca         1 IP6       0.336900
      5 C5           3.3880     5.0260    -5.6290 ca         1 IP6      -0.172000
      6 C6           3.1200     4.0530    -4.6470 ca         1 IP6      -0.120000
      7 C7           2.0710     3.1400    -4.8700 ca         1 IP6       0.193000
      8 N8           1.7570     2.1520    -3.8970 nu         1 IP6      -0.927200
      9 C9           2.5120     1.8210    -2.6820 c3         1 IP6       0.239100
     10 C10          1.8330     0.6740    -1.9470 ca         1 IP6      -0.105300
     11 C11          2.1750    -0.6590    -2.2440 ca         1 IP6      -0.087000
     12 C12          1.5500    -1.7150    -1.5610 ca         1 IP6      -0.116000
     13 C13          0.5820    -1.4450    -0.5800 ca         1 IP6      -0.093000
     14 C14          0.2150    -0.1140    -0.2610 cp         1 IP6      -0.030000
     15 C15          0.8590     0.9360    -0.9640 ca         1 IP6      -0.094000
     16 C16         -0.8200     0.1750     0.7850 cp         1 IP6      -0.021000
     17 C17         -0.9430    -0.6500     1.9440 ca         1 IP6      -0.130000
     18 C18         -1.9130    -0.3870     2.9340 ca         1 IP6      -0.061000
     19 C19         -2.7560     0.7120     2.7440 ca         1 IP6      -0.094800
     20 C20         -3.8170     1.2220     3.5560 cc         1 IP6      -0.240200
     21 C21         -4.3310     2.3360     2.9020 cd         1 IP6      -0.161100
     22 N22         -3.6090     2.5300     1.6970 na         1 IP6      -0.223700
     23 C23         -2.6620     1.5190     1.6480 ca         1 IP6      -0.052200
     24 C24         -1.7070     1.2810     0.6490 ca         1 IP6      -0.115000
     25 HN11         0.3240     1.5380    -6.1760 hn         1 IP6       0.457000
     26 HN12         0.0760     2.6030    -7.5010 hn         1 IP6       0.457000
     27 H4           2.8090     5.8130    -7.5710 h4         1 IP6       0.017100
     28 H5           4.1890     5.7470    -5.4880 ha         1 IP6       0.121000
     29 H6           3.7140     4.0220    -3.7370 ha         1 IP6       0.117000
     30 HN8          0.8970     1.6220    -4.0490 hn         1 IP6       0.463000
     31 H91          2.5680     2.6970    -2.0200 h1         1 IP6       0.043700
     32 H92          3.5400     1.5320    -2.9420 h1         1 IP6       0.043700
     33 H11          2.9230    -0.8750    -3.0040 ha         1 IP6       0.121000
     34 H12          1.8150    -2.7440    -1.7950 ha         1 IP6       0.115000
     35 H13          0.1010    -2.2780    -0.0740 ha         1 IP6       0.117000
     36 H15          0.6090     1.9690    -0.7340 ha         1 IP6       0.113000
     37 H17         -0.2710    -1.4930     2.0830 ha         1 IP6       0.113000
     38 H18         -2.0010    -1.0170     3.8160 ha         1 IP6       0.116000
     39 H20         -4.1690     0.8260     4.5070 ha         1 IP6       0.206000
     40 H21         -5.1440     2.9960     3.1980 h4         1 IP6       0.212000
     41 HN22        -3.7550     3.2630     1.0080 hn         1 IP6       0.349000
     42 H24         -1.6600     1.9290    -0.2220 ha         1 IP6       0.114000
@<TRIPOS>BOND
     1     1     2 1   
     2     1    25 1   
     3     1    26 1   
     4     2     3 ar  
     5     2     7 ar  
     6     3     4 ar  
     7     4     5 ar  
     8     4    27 1   
     9     5     6 ar  
    10     5    28 1   
    11     6     7 ar  
    12     6    29 1   
    13     7     8 1   
    14     8     9 1   
    15     8    30 1   
    16     9    10 1   
    17     9    31 1   
    18     9    32 1   
    19    10    11 ar  
    20    10    15 ar  
    21    11    12 ar  
    22    11    33 1   
    23    12    13 ar  
    24    12    34 1   
    25    13    14 ar  
    26    13    35 1   
    27    14    15 ar  
    28    14    16 1   
    29    15    36 1   
    30    16    17 ar  
    31    16    24 ar  
    32    17    18 ar  
    33    17    37 1   
    34    18    19 ar  
    35    18    38 1   
    36    19    20 1   
    37    19    23 ar  
    38    20    21 2   
    39    20    39 1   
    40    21    22 1   
    41    21    40 1   
    42    22    23 1   
    43    22    41 1   
    44    23    24 ar  
    45    24    42 1   
@<TRIPOS>SUBSTRUCTURE
     1 IP6         1 TEMP              0 ****  ****    0 ROOT
