@<TRIPOS>MOLECULE
IP7
   55    59     1     0     0
SMALL
bcc


@<TRIPOS>ATOM
      1 N1           0.5780    -4.8510    -4.9200 nv         1 IP7      -0.931500
      2 C2           0.2890    -3.9450    -5.9140 ca         1 IP7       0.606200
      3 N3           0.1460    -4.3940    -7.1450 nb         1 IP7      -0.723000
      4 C4          -0.1580    -3.5310    -8.1200 ca         1 IP7       0.402200
      5 C5          -0.3170    -2.1830    -7.9020 ca         1 IP7      -0.257300
      6 C6          -0.1830    -1.7010    -6.5980 ca         1 IP7      -0.136000
      7 C7           0.1120    -2.5760    -5.5690 ca         1 IP7      -0.012700
      8 N8           0.3110    -2.2060    -4.2470 nu         1 IP7      -0.739600
      9 C9           0.2340    -0.8090    -3.8770 c3         1 IP7       0.255100
     10 C10          0.6670    -0.6200    -2.4490 ca         1 IP7      -0.138300
     11 C11         -0.2520    -0.2720    -1.4740 ca         1 IP7      -0.079000
     12 C12          0.1040    -0.0970    -0.1340 cp         1 IP7      -0.066000
     13 C13          1.4430    -0.2800     0.2010 ca         1 IP7      -0.071000
     14 C14          2.3890    -0.6220    -0.7550 ca         1 IP7      -0.220000
     15 C15          2.0080    -0.7980    -2.0800 ca         1 IP7       0.169100
     16 O16          2.8600    -1.1160    -3.0710 os         1 IP7      -0.317900
     17 C17          4.1420    -1.6110    -2.7650 c3         1 IP7       0.090100
     18 C18          4.6920    -2.3050    -3.9820 ca         1 IP7       0.401600
     19 C19          3.8710    -2.7730    -5.0020 ca         1 IP7      -0.222300
     20 C20          4.4560    -3.4440    -6.0640 ca         1 IP7      -0.095000
     21 C21          5.8300    -3.6260    -6.0720 ca         1 IP7      -0.245300
     22 C22          6.5600    -3.1230    -5.0060 ca         1 IP7       0.404200
     23 N23          6.0100    -2.4760    -3.9860 nb         1 IP7      -0.678000
     24 C24         -0.9010     0.2640     0.8850 cp         1 IP7      -0.012000
     25 C25         -0.5620     1.1470     1.9340 ca         1 IP7      -0.150000
     26 C26         -1.4680     1.5050     2.9090 ca         1 IP7      -0.077000
     27 C27         -2.7660     0.9830     2.8610 ca         1 IP7      -0.096800
     28 C28         -3.9350     1.1190     3.6710 cc         1 IP7      -0.189200
     29 C29         -4.8990     0.3410     3.0970 cd         1 IP7      -0.111100
     30 N30         -4.3990    -0.2680     1.9810 na         1 IP7      -0.174400
     31 C31         -3.0980     0.1030     1.8060 ca         1 IP7      -0.050200
     32 C32         -2.1840    -0.2630     0.8220 ca         1 IP7      -0.137000
     33 HN11         1.1550    -4.5070    -4.1670 hn         1 IP7       0.404300
     34 HN12         0.8890    -5.7470    -5.2600 hn         1 IP7       0.404300
     35 H4          -0.2620    -3.9500    -9.1150 h4         1 IP7       0.017100
     36 H5          -0.5490    -1.5130    -8.7190 ha         1 IP7       0.140000
     37 H6          -0.3240    -0.6460    -6.4020 ha         1 IP7       0.136000
     38 HN8         -0.1530    -2.8120    -3.5830 hn         1 IP7       0.406800
     39 H91         -0.7760    -0.3990    -4.0060 h1         1 IP7       0.045200
     40 H92          0.8870    -0.2420    -4.5450 h1         1 IP7       0.045200
     41 H11         -1.2820    -0.1170    -1.7760 ha         1 IP7       0.133000
     42 H13          1.7660    -0.1700     1.2280 ha         1 IP7       0.136000
     43 H14          3.4200    -0.7460    -0.4480 ha         1 IP7       0.140000
     44 H171         4.0930    -2.3300    -1.9380 h1         1 IP7       0.056700
     45 H172         4.8200    -0.8080    -2.4590 h1         1 IP7       0.056700
     46 H19          2.8020    -2.6180    -4.9630 ha         1 IP7       0.169000
     47 H20          3.8460    -3.8210    -6.8750 ha         1 IP7       0.142000
     48 H21          6.3280    -4.1430    -6.8820 ha         1 IP7       0.143000
     49 H22          7.6370    -3.2450    -4.9740 h4         1 IP7       0.019100
     50 H25          0.4340     1.5720     1.9620 ha         1 IP7       0.130000
     51 H26         -1.1780     2.1880     3.6970 ha         1 IP7       0.133000
     52 H28         -4.0450     1.7130     4.5640 ha         1 IP7       0.156000
     53 H29         -5.9200     0.1710     3.4010 h4         1 IP7       0.162000
     54 HN30        -4.9140    -0.8990     1.3900 hn         1 IP7       0.298700
     55 H32         -2.4630    -0.9610     0.0420 ha         1 IP7       0.131000
@<TRIPOS>BOND
     1     1     2 1   
     2     1    33 1   
     3     1    34 1   
     4     2     3 ar  
     5     2     7 ar  
     6     3     4 ar  
     7     4     5 ar  
     8     4    35 1   
     9     5     6 ar  
    10     5    36 1   
    11     6     7 ar  
    12     6    37 1   
    13     7     8 1   
    14     8     9 1   
    15     8    38 1   
    16     9    10 1   
    17     9    39 1   
    18     9    40 1   
    19    10    11 ar  
    20    10    15 ar  
    21    11    12 ar  
    22    11    41 1   
    23    12    13 ar  
    24    12    24 1   
    25    13    14 ar  
    26    13    42 1   
    27    14    15 ar  
    28    14    43 1   
    29    15    16 1   
    30    16    17 1   
    31    17    18 1   
    32    17    44 1   
    33    17    45 1   
    34    18    19 ar  
    35    18    23 ar  
    36    19    20 ar  
    37    19    46 1   
    38    20    21 ar  
    39    20    47 1   
    40    21    22 ar  
    41    21    48 1   
    42    22    23 ar  
    43    22    49 1   
    44    24    25 ar  
    45    24    32 ar  
    46    25    26 ar  
    47    25    50 1   
    48    26    27 ar  
    49    26    51 1   
    50    27    28 1   
    51    27    31 ar  
    52    28    29 2   
    53    28    52 1   
    54    29    30 1   
    55    29    53 1   
    56    30    31 1   
    57    30    54 1   
    58    31    32 ar  
    59    32    55 1   
@<TRIPOS>SUBSTRUCTURE
     1 IP7         1 TEMP              0 ****  ****    0 ROOT
