@<TRIPOS>MOLECULE
IP7
   55    59     1     0     0
SMALL
No Charge or Current Charge


@<TRIPOS>ATOM
      1 N1          -1.0130    -4.9360    -4.7510 nv         1 IP7      -1.041900
      2 C2          -1.0180    -3.9540    -5.6850 ca         1 IP7       0.540900
      3 N3          -1.4720    -4.4510    -6.8370 nb         1 IP7      -0.723000
      4 C4          -1.5180    -3.6050    -7.8910 ca         1 IP7       0.336900
      5 C5          -1.1090    -2.2600    -7.8140 ca         1 IP7      -0.174000
      6 C6          -0.6300    -1.7440    -6.5940 ca         1 IP7      -0.118000
      7 C7          -0.5740    -2.5990    -5.4760 ca         1 IP7       0.191000
      8 N8          -0.1100    -2.1130    -4.2230 nu         1 IP7      -0.933200
      9 C9           0.6040    -0.8550    -3.9620 c3         1 IP7       0.255100
     10 C10          0.9680    -0.7610    -2.4850 ca         1 IP7      -0.138300
     11 C11         -0.0230    -0.3760    -1.5600 ca         1 IP7      -0.061000
     12 C12          0.2560    -0.2640    -0.1760 cp         1 IP7      -0.066000
     13 C13          1.5720    -0.5530     0.2570 ca         1 IP7      -0.053000
     14 C14          2.5690    -0.9380    -0.6550 ca         1 IP7      -0.202000
     15 C15          2.2740    -1.0440    -2.0310 ca         1 IP7       0.169100
     16 O16          3.2310    -1.4200    -2.9540 os         1 IP7      -0.341100
     17 C17          4.5800    -1.7710    -2.5790 c3         1 IP7       0.113300
     18 C18          5.3750    -2.1700    -3.8230 ca         1 IP7       0.336300
     19 C19          4.8760    -3.1450    -4.7110 ca         1 IP7      -0.139000
     20 C20          5.6280    -3.4980    -5.8430 ca         1 IP7      -0.077000
     21 C21          6.8620    -2.8570    -6.0410 ca         1 IP7      -0.162000
     22 C22          7.2940    -1.8980    -5.1090 ca         1 IP7       0.338900
     23 N23          6.5710    -1.5560    -4.0170 nb         1 IP7      -0.678000
     24 C24         -0.8070     0.1460     0.7980 cp         1 IP7      -0.012000
     25 C25         -0.4900     0.9480     1.9370 ca         1 IP7      -0.132000
     26 C26         -1.4830     1.3400     2.8590 ca         1 IP7      -0.059000
     27 C27         -2.7950     0.9170     2.6230 ca         1 IP7      -0.096800
     28 C28         -3.9950     1.1480     3.3650 cc         1 IP7      -0.239200
     29 C29         -5.0220     0.4980     2.6910 cd         1 IP7      -0.161100
     30 N30         -4.4840    -0.1340     1.5410 na         1 IP7      -0.224700
     31 C31         -3.1280     0.1510     1.5440 ca         1 IP7      -0.050200
     32 C32         -2.1620    -0.2520     0.6120 ca         1 IP7      -0.119000
     33 HN11        -0.3290    -4.8590    -4.0080 hn         1 IP7       0.459500
     34 HN12        -1.1730    -5.8680    -5.1120 hn         1 IP7       0.459500
     35 H4          -1.8910    -4.0160    -8.8280 h4         1 IP7       0.017100
     36 H5          -1.1680    -1.6270    -8.6950 ha         1 IP7       0.122000
     37 H6          -0.3190    -0.7050    -6.5280 ha         1 IP7       0.118000
     38 HN8         -0.2280    -2.7350    -3.4230 hn         1 IP7       0.462000
     39 H91         -0.0330    -0.0000    -4.2280 h1         1 IP7       0.045200
     40 H92          1.5060    -0.7950    -4.5870 h1         1 IP7       0.045200
     41 H11         -1.0220    -0.1480    -1.9250 ha         1 IP7       0.115000
     42 H13          1.8220    -0.4920     1.3130 ha         1 IP7       0.118000
     43 H14          3.5620    -1.1520    -0.2730 ha         1 IP7       0.122000
     44 H171         4.5760    -2.6190    -1.8810 h1         1 IP7       0.056700
     45 H172         5.0730    -0.9240    -2.0850 h1         1 IP7       0.056700
     46 H19          3.9150    -3.6150    -4.5200 ha         1 IP7       0.151000
     47 H20          5.2650    -4.2450    -6.5460 ha         1 IP7       0.124000
     48 H21          7.4810    -3.0960    -6.9020 ha         1 IP7       0.125000
     49 H22          8.2480    -1.3890    -5.2400 h4         1 IP7       0.019100
     50 H25          0.5320     1.2800     2.0980 ha         1 IP7       0.112000
     51 H26         -1.2370     1.9520     3.7230 ha         1 IP7       0.115000
     52 H28         -4.1010     1.7210     4.2850 ha         1 IP7       0.206000
     53 H29         -6.0800     0.4380     2.9390 h4         1 IP7       0.212000
     54 HN30        -4.9910    -0.6850     0.8530 hn         1 IP7       0.349000
     55 H32         -2.4480    -0.8730    -0.2330 ha         1 IP7       0.113000
@<TRIPOS>BOND
     1     1     2 1   
     2     1    33 1   
     3     1    34 1   
     4     2     3 ar  
     5     2     7 ar  
     6     3     4 ar  
     7     4     5 ar  
     8     4    35 1   
     9     5     6 ar  
    10     5    36 1   
    11     6     7 ar  
    12     6    37 1   
    13     7     8 1   
    14     8     9 1   
    15     8    38 1   
    16     9    10 1   
    17     9    39 1   
    18     9    40 1   
    19    10    11 ar  
    20    10    15 ar  
    21    11    12 ar  
    22    11    41 1   
    23    12    13 ar  
    24    12    24 1   
    25    13    14 ar  
    26    13    42 1   
    27    14    15 ar  
    28    14    43 1   
    29    15    16 1   
    30    16    17 1   
    31    17    18 1   
    32    17    44 1   
    33    17    45 1   
    34    18    19 ar  
    35    18    23 ar  
    36    19    20 ar  
    37    19    46 1   
    38    20    21 ar  
    39    20    47 1   
    40    21    22 ar  
    41    21    48 1   
    42    22    23 ar  
    43    22    49 1   
    44    24    25 ar  
    45    24    32 ar  
    46    25    26 ar  
    47    25    50 1   
    48    26    27 ar  
    49    26    51 1   
    50    27    28 1   
    51    27    31 ar  
    52    28    29 2   
    53    28    52 1   
    54    29    30 1   
    55    29    53 1   
    56    30    31 1   
    57    30    54 1   
    58    31    32 ar  
    59    32    55 1   
@<TRIPOS>SUBSTRUCTURE
     1 IP7         1 TEMP              0 ****  ****    0 ROOT
