@<TRIPOS>MOLECULE
IPA
   12    11     1     0     0
SMALL
bcc


@<TRIPOS>ATOM
      1 C1          62.2090    -8.5160    35.1470 c3         1 IPA      -0.108100
      2 C2          61.4850    -7.8450    33.9950 c3         1 IPA       0.148100
      3 C3          60.0980    -7.3720    34.4040 c3         1 IPA      -0.108100
      4 O2          61.4230    -8.7820    32.9330 oh         1 IPA      -0.599800
      5 H11         63.2110    -8.8360    34.8560 hc         1 IPA       0.040867
      6 H12         62.3090    -7.8250    35.9840 hc         1 IPA       0.040867
      7 H13         61.6570    -9.3910    35.4980 hc         1 IPA       0.040867
      8 H2          62.0700    -6.9660    33.6880 h1         1 IPA       0.023700
      9 H31         59.5810    -6.8890    33.5730 hc         1 IPA       0.040867
     10 H32         59.4860    -8.2080    34.7480 hc         1 IPA       0.040867
     11 H33         60.1630    -6.6450    35.2150 hc         1 IPA       0.040867
     12 HO2         60.9810    -8.3610    32.1890 ho         1 IPA       0.400000
@<TRIPOS>BOND
     1     1     2 1   
     2     1     5 1   
     3     1     6 1   
     4     1     7 1   
     5     2     3 1   
     6     2     4 1   
     7     2     8 1   
     8     3     9 1   
     9     3    10 1   
    10     3    11 1   
    11     4    12 1   
@<TRIPOS>SUBSTRUCTURE
     1 IPA         1 TEMP              0 ****  ****    0 ROOT
