@<TRIPOS>MOLECULE
IPA
   12    11     1     0     0
SMALL
No Charge or Current Charge


@<TRIPOS>ATOM
      1 C1          62.2330    -8.5230    35.1730 c3         1 IPA      -0.108100
      2 C2          61.4900    -7.8540    34.0010 c3         1 IPA       0.171300
      3 C3          60.0810    -7.3710    34.3940 c3         1 IPA      -0.108100
      4 O2          61.3810    -8.7890    32.9260 oh         1 IPA      -0.662000
      5 H11         63.2350    -8.8430    34.8620 hc         1 IPA       0.040867
      6 H12         62.3450    -7.8200    36.0070 hc         1 IPA       0.040867
      7 H13         61.6860    -9.4020    35.5340 hc         1 IPA       0.040867
      8 H2          62.0750    -6.9830    33.6770 h1         1 IPA       0.023700
      9 H31         59.5860    -6.8820    33.5460 hc         1 IPA       0.040867
     10 H32         59.4550    -8.2100    34.7220 hc         1 IPA       0.040867
     11 H33         60.1390    -6.6460    35.2140 hc         1 IPA       0.040867
     12 HO2         60.9670    -8.3130    32.1740 ho         1 IPA       0.439000
@<TRIPOS>BOND
     1     1     2 1   
     2     1     5 1   
     3     1     6 1   
     4     1     7 1   
     5     2     3 1   
     6     2     4 1   
     7     2     8 1   
     8     3     9 1   
     9     3    10 1   
    10     3    11 1   
    11     4    12 1   
@<TRIPOS>SUBSTRUCTURE
     1 IPA         1 TEMP              0 ****  ****    0 ROOT
