@<TRIPOS>MOLECULE
IPB
   25    25     1     0     0
SMALL
abcg2


@<TRIPOS>ATOM
      1 C4           0.0400    -0.0300     0.5930 ca         1 IPB      -0.168300
      2 C5           1.2840     0.0650    -0.0260 ca         1 IPB      -0.066000
      3 C6           1.4330     0.0780    -1.4040 ca         1 IPB      -0.148000
      4 C1           0.3140    -0.0090    -2.2280 ca         1 IPB      -0.040300
      5 C2          -0.9350    -0.1080    -1.6290 ca         1 IPB      -0.149000
      6 C3          -1.0800    -0.1210    -0.2430 ca         1 IPB       0.148100
      7 C8          -0.0460    -0.0480     2.1050 c3         1 IPB      -0.006400
      8 C7           0.4400    -0.0120    -3.7240 c3         1 IPB      -0.047800
      9 O           -2.3490    -0.2240     0.2130 oh         1 IPB      -0.542100
     10 C9           0.5760    -1.3230     2.6770 c3         1 IPB      -0.085600
     11 C10          0.5810     1.2010     2.7230 c3         1 IPB      -0.085600
     12 H5           2.1720     0.1330     0.5930 ha         1 IPB       0.109000
     13 H6           2.4230     0.1590    -1.8370 ha         1 IPB       0.113000
     14 H2          -1.8250    -0.1740    -2.2460 ha         1 IPB       0.126000
     15 H8          -1.0940    -0.0460     2.4230 hc         1 IPB       0.030700
     16 H73          0.2350    -1.0020    -4.1350 hc         1 IPB       0.043033
     17 H72         -0.2690     0.6770    -4.1840 hc         1 IPB       0.043033
     18 H71          1.4420     0.2760    -4.0410 hc         1 IPB       0.043033
     19 H           -2.3760    -0.2020     1.1760 ho         1 IPB       0.465000
     20 H93          0.4570    -1.3570     3.7610 hc         1 IPB       0.036200
     21 H92          0.1080    -2.2140     2.2570 hc         1 IPB       0.036200
     22 H91          1.6440    -1.3730     2.4600 hc         1 IPB       0.036200
     23 H103         1.6530     1.2510     2.5310 hc         1 IPB       0.036200
     24 H102         0.1280     2.1100     2.3260 hc         1 IPB       0.036200
     25 H101         0.4440     1.2010     3.8060 hc         1 IPB       0.036200
@<TRIPOS>BOND
     1     1     2 ar  
     2     1     6 ar  
     3     1     7 1   
     4     2     3 ar  
     5     2    12 1   
     6     3     4 ar  
     7     3    13 1   
     8     4     5 ar  
     9     4     8 1   
    10     5     6 ar  
    11     5    14 1   
    12     6     9 1   
    13     7    10 1   
    14     7    11 1   
    15     7    15 1   
    16     8    16 1   
    17     8    17 1   
    18     8    18 1   
    19     9    19 1   
    20    10    20 1   
    21    10    21 1   
    22    10    22 1   
    23    11    23 1   
    24    11    24 1   
    25    11    25 1   
@<TRIPOS>SUBSTRUCTURE
     1 IPB         1 TEMP              0 ****  ****    0 ROOT
