@<TRIPOS>MOLECULE
IPB
   25    25     1     0     0
SMALL
No Charge or Current Charge


@<TRIPOS>ATOM
      1 C4           0.0400    -0.0510     0.5820 ca         1 IPB      -0.168300
      2 C5           1.3140    -0.0110    -0.0280 ca         1 IPB      -0.066000
      3 C6           1.4440     0.0060    -1.4260 ca         1 IPB      -0.148000
      4 C1           0.3040    -0.0150    -2.2470 ca         1 IPB      -0.040300
      5 C2          -0.9670    -0.0570    -1.6510 ca         1 IPB      -0.149000
      6 C3          -1.1050    -0.0740    -0.2530 ca         1 IPB       0.148100
      7 C8          -0.0540    -0.0680     2.1190 c3         1 IPB      -0.006400
      8 C7           0.4450     0.0000    -3.7610 c3         1 IPB      -0.047800
      9 O           -2.3650    -0.1150     0.2680 oh         1 IPB      -0.542100
     10 C9           0.6020    -1.3360     2.7090 c3         1 IPB      -0.085600
     11 C10          0.5410     1.2180     2.7350 c3         1 IPB      -0.085600
     12 H5           2.2140     0.0060     0.5820 ha         1 IPB       0.109000
     13 H6           2.4360     0.0350    -1.8720 ha         1 IPB       0.113000
     14 H2          -1.8570    -0.0780    -2.2750 ha         1 IPB       0.126000
     15 H8          -1.1020    -0.0970     2.4380 hc         1 IPB       0.030700
     16 H73          0.5010    -1.0200    -4.1580 hc         1 IPB       0.043033
     17 H72         -0.4080     0.4990    -4.2370 hc         1 IPB       0.043033
     18 H71          1.3520     0.5310    -4.0730 hc         1 IPB       0.043033
     19 H           -2.2870    -0.1230     1.2440 ho         1 IPB       0.465000
     20 H93          0.4580    -1.3760     3.7950 hc         1 IPB       0.036200
     21 H92          0.1550    -2.2380     2.2740 hc         1 IPB       0.036200
     22 H91          1.6800    -1.3580     2.5090 hc         1 IPB       0.036200
     23 H103         1.6160     1.2950     2.5370 hc         1 IPB       0.036200
     24 H102         0.0500     2.1060     2.3170 hc         1 IPB       0.036200
     25 H101         0.3940     1.2290     3.8210 hc         1 IPB       0.036200
@<TRIPOS>BOND
     1     1     2 ar  
     2     1     6 ar  
     3     1     7 1   
     4     2     3 ar  
     5     2    12 1   
     6     3     4 ar  
     7     3    13 1   
     8     4     5 ar  
     9     4     8 1   
    10     5     6 ar  
    11     5    14 1   
    12     6     9 1   
    13     7    10 1   
    14     7    11 1   
    15     7    15 1   
    16     8    16 1   
    17     8    17 1   
    18     8    18 1   
    19     9    19 1   
    20    10    20 1   
    21    10    21 1   
    22    10    22 1   
    23    11    23 1   
    24    11    24 1   
    25    11    25 1   
@<TRIPOS>SUBSTRUCTURE
     1 IPB         1 TEMP              0 ****  ****    0 ROOT
