@<TRIPOS>MOLECULE
IPC
   47    49     1     0     0
SMALL
No Charge or Current Charge


@<TRIPOS>ATOM
      1 N1           1.6100     0.3290    -1.1170 n          1 IPC      -0.286000
      2 C2           3.0840     0.4590    -0.9250 c3         1 IPC       0.129700
      3 C3           3.9200    -0.5640    -1.7270 c3         1 IPC      -0.099600
      4 C4           3.6000     1.9130    -1.0070 c3         1 IPC      -0.099600
      5 C5           1.0360     0.6940    -2.3740 c          1 IPC       0.661700
      6 O6           1.7300     0.9360    -3.3590 o          1 IPC      -0.614100
      7 C7          -0.4670     0.9060    -2.4620 ca         1 IPC      -0.107600
      8 C8          -1.2230     1.4270    -1.3860 ca         1 IPC      -0.056000
      9 C9          -2.6090     1.6230    -1.5130 ca         1 IPC      -0.129000
     10 C10         -3.2640     1.3210    -2.7200 ca         1 IPC      -0.079300
     11 C11         -2.5160     0.8270    -3.8020 ca         1 IPC      -0.129000
     12 C12         -1.1300     0.6300    -3.6780 ca         1 IPC      -0.056000
     13 C13         -4.7650     1.5310    -2.8530 c3         1 IPC      -0.039800
     14 C14          0.8570    -0.3100    -0.1200 cc         1 IPC      -0.023400
     15 C15          0.0000    -1.3890    -0.2360 cd         1 IPC      -0.223600
     16 S16         -0.7990    -1.7110     1.3100 ss         1 IPC       0.274000
     17 C17          0.1630    -0.4480     2.1160 cd         1 IPC      -0.251000
     18 C18          0.9540     0.2040     1.2010 cc         1 IPC      -0.122000
     19 C19         -0.2030    -2.2870    -1.4060 c          1 IPC       0.731600
     20 O20         -1.0200    -3.1880    -1.2930 o          1 IPC      -0.699500
     21 O21          0.4710    -2.1420    -2.4130 o          1 IPC      -0.699500
     22 C22          0.0390    -0.1610     3.5630 ca         1 IPC       0.040000
     23 C23          0.7820     0.8820     4.1610 ca         1 IPC      -0.115000
     24 C24          0.6650     1.1550     5.5360 ca         1 IPC      -0.112000
     25 C25         -0.1960     0.3890     6.3350 ca         1 IPC      -0.136000
     26 C26         -0.9410    -0.6500     5.7570 ca         1 IPC      -0.112000
     27 C27         -0.8240    -0.9230     4.3830 ca         1 IPC      -0.115000
     28 H2           3.2750     0.1720     0.1170 h1         1 IPC       0.035700
     29 H31          3.5320    -1.5780    -1.5750 hc         1 IPC       0.039533
     30 H32          3.9060    -0.3460    -2.8000 hc         1 IPC       0.039533
     31 H33          4.9640    -0.5470    -1.3940 hc         1 IPC       0.039533
     32 H41          3.0070     2.5680    -0.3570 hc         1 IPC       0.039533
     33 H42          4.6450     1.9660    -0.6800 hc         1 IPC       0.039533
     34 H43          3.5470     2.3010    -2.0300 hc         1 IPC       0.039533
     35 H8          -0.7420     1.7040    -0.4520 ha         1 IPC       0.128500
     36 H9          -3.1730     2.0190    -0.6720 ha         1 IPC       0.099000
     37 H11         -3.0080     0.5940    -4.7440 ha         1 IPC       0.099000
     38 H12         -0.5690     0.2440    -4.5270 ha         1 IPC       0.128500
     39 H131        -5.3130     0.6310    -2.5520 hc         1 IPC       0.031700
     40 H132        -5.1100     2.3610    -2.2240 hc         1 IPC       0.031700
     41 H133        -5.0460     1.7650    -3.8870 hc         1 IPC       0.031700
     42 H18          1.5950     1.0460     1.4380 ha         1 IPC       0.114000
     43 H23          1.4580     1.4920     3.5700 ha         1 IPC       0.116500
     44 H24          1.2440     1.9610     5.9800 ha         1 IPC       0.100000
     45 H25         -0.2870     0.6010     7.3980 ha         1 IPC       0.098000
     46 H26         -1.6100    -1.2460     6.3750 ha         1 IPC       0.100000
     47 H27         -1.4140    -1.7360     3.9690 ha         1 IPC       0.116500
@<TRIPOS>BOND
     1     1     2 1   
     2     1     5 1   
     3     1    14 1   
     4     2     3 1   
     5     2     4 1   
     6     2    28 1   
     7     3    29 1   
     8     3    30 1   
     9     3    31 1   
    10     4    32 1   
    11     4    33 1   
    12     4    34 1   
    13     5     6 2   
    14     5     7 1   
    15     7     8 ar  
    16     7    12 ar  
    17     8     9 ar  
    18     8    35 1   
    19     9    10 ar  
    20     9    36 1   
    21    10    11 ar  
    22    10    13 1   
    23    11    12 ar  
    24    11    37 1   
    25    12    38 1   
    26    13    39 1   
    27    13    40 1   
    28    13    41 1   
    29    14    15 2   
    30    14    18 1   
    31    15    16 1   
    32    15    19 1   
    33    16    17 1   
    34    17    18 2   
    35    17    22 1   
    36    18    42 1   
    37    19    20 1   
    38    19    21 1   
    39    22    23 ar  
    40    22    27 ar  
    41    23    24 ar  
    42    23    43 1   
    43    24    25 ar  
    44    24    44 1   
    45    25    26 ar  
    46    25    45 1   
    47    26    27 ar  
    48    26    46 1   
    49    27    47 1   
@<TRIPOS>SUBSTRUCTURE
     1 IPC         1 TEMP              0 ****  ****    0 ROOT
