@<TRIPOS>MOLECULE
IPC
   47    49     1     0     0
SMALL
abcg2


@<TRIPOS>ATOM
      1 N1           1.6670     0.5140    -1.1580 n          1 IPC      -0.286000
      2 C2           3.1350     0.5710    -1.0320 c3         1 IPC       0.129700
      3 C3           3.8210    -0.5930    -1.7360 c3         1 IPC      -0.099600
      4 C4           3.7150     1.9260    -1.4160 c3         1 IPC      -0.099600
      5 C5           1.0460     0.7750    -2.3400 c          1 IPC       0.661700
      6 O6           1.6550     1.0030    -3.3720 o          1 IPC      -0.614100
      7 C7          -0.4430     0.9070    -2.3170 ca         1 IPC      -0.107600
      8 C8          -1.0990     1.6440    -1.3370 ca         1 IPC      -0.056000
      9 C9          -2.4690     1.8500    -1.4100 ca         1 IPC      -0.129000
     10 C10         -3.2210     1.3180    -2.4540 ca         1 IPC      -0.079300
     11 C11         -2.5530     0.5870    -3.4370 ca         1 IPC      -0.129000
     12 C12         -1.1830     0.3930    -3.3770 ca         1 IPC      -0.056000
     13 C13         -4.7070     1.5100    -2.5210 c3         1 IPC      -0.039800
     14 C14          0.9890    -0.1590    -0.1230 cc         1 IPC      -0.023400
     15 C15          0.3300    -1.3530    -0.2540 cd         1 IPC      -0.223600
     16 S16         -0.3870    -1.8150     1.2370 ss         1 IPC       0.274000
     17 C17          0.2220    -0.4230     2.0570 cd         1 IPC      -0.251000
     18 C18          0.9330     0.3650     1.1970 cc         1 IPC      -0.122000
     19 C19          0.1550    -2.2980    -1.4110 c          1 IPC       0.731600
     20 O20         -0.5670    -3.2850    -1.1650 o          1 IPC      -0.699500
     21 O21          0.7440    -2.0240    -2.4680 o          1 IPC      -0.699500
     22 C22         -0.0450    -0.1890     3.4750 ca         1 IPC       0.040000
     23 C23          0.8120     0.6190     4.2280 ca         1 IPC      -0.115000
     24 C24          0.5650     0.8570     5.5700 ca         1 IPC      -0.112000
     25 C25         -0.5360     0.2830     6.1930 ca         1 IPC      -0.136000
     26 C26         -1.3910    -0.5280     5.4580 ca         1 IPC      -0.112000
     27 C27         -1.1510    -0.7580     4.1120 ca         1 IPC      -0.115000
     28 H2           3.3160     0.4520     0.0390 h1         1 IPC       0.035700
     29 H31          3.4050    -1.5450    -1.4090 hc         1 IPC       0.039533
     30 H32          3.7120    -0.5260    -2.8170 hc         1 IPC       0.039533
     31 H33          4.8860    -0.5880    -1.4990 hc         1 IPC       0.039533
     32 H41          3.1700     2.7360    -0.9290 hc         1 IPC       0.039533
     33 H42          4.7510     1.9760    -1.0800 hc         1 IPC       0.039533
     34 H43          3.7040     2.0970    -2.4900 hc         1 IPC       0.039533
     35 H8          -0.5440     2.0770    -0.5150 ha         1 IPC       0.128500
     36 H9          -2.9590     2.4350    -0.6410 ha         1 IPC       0.099000
     37 H11         -3.1130     0.1670    -4.2640 ha         1 IPC       0.099000
     38 H12         -0.6860    -0.1730    -4.1530 ha         1 IPC       0.128500
     39 H131        -5.2330     0.5920    -2.2480 hc         1 IPC       0.031700
     40 H132        -5.0420     2.2930    -1.8420 hc         1 IPC       0.031700
     41 H133        -5.0310     1.7750    -3.5280 hc         1 IPC       0.031700
     42 H18          1.3770     1.3120     1.4750 ha         1 IPC       0.114000
     43 H23          1.6890     1.0530     3.7630 ha         1 IPC       0.116500
     44 H24          1.2410     1.4850     6.1350 ha         1 IPC       0.100000
     45 H25         -0.7260     0.4640     7.2430 ha         1 IPC       0.098000
     46 H26         -2.2530    -0.9790     5.9310 ha         1 IPC       0.100000
     47 H27         -1.8440    -1.3740     3.5510 ha         1 IPC       0.116500
@<TRIPOS>BOND
     1     1     2 1   
     2     1     5 1   
     3     1    14 1   
     4     2     3 1   
     5     2     4 1   
     6     2    28 1   
     7     3    29 1   
     8     3    30 1   
     9     3    31 1   
    10     4    32 1   
    11     4    33 1   
    12     4    34 1   
    13     5     6 2   
    14     5     7 1   
    15     7     8 ar  
    16     7    12 ar  
    17     8     9 ar  
    18     8    35 1   
    19     9    10 ar  
    20     9    36 1   
    21    10    11 ar  
    22    10    13 1   
    23    11    12 ar  
    24    11    37 1   
    25    12    38 1   
    26    13    39 1   
    27    13    40 1   
    28    13    41 1   
    29    14    15 2   
    30    14    18 1   
    31    15    16 1   
    32    15    19 1   
    33    16    17 1   
    34    17    18 2   
    35    17    22 1   
    36    18    42 1   
    37    19    20 1   
    38    19    21 1   
    39    22    23 ar  
    40    22    27 ar  
    41    23    24 ar  
    42    23    43 1   
    43    24    25 ar  
    44    24    44 1   
    45    25    26 ar  
    46    25    45 1   
    47    26    27 ar  
    48    26    46 1   
    49    27    47 1   
@<TRIPOS>SUBSTRUCTURE
     1 IPC         1 TEMP              0 ****  ****    0 ROOT
