@<TRIPOS>MOLECULE
IPF
  130   135     1     0     0
SMALL
No Charge or Current Charge


@<TRIPOS>ATOM
      1 C1          -5.5190    -3.3780     1.8530 c          1 IPF       0.619100
      2 O1          -5.7330    -2.2620     2.3030 o          1 IPF      -0.617100
      3 C2          -6.1800    -4.6250     2.4260 c3         1 IPF      -0.178100
      4 N1          -4.6680    -3.6180     0.7960 ns         1 IPF      -0.484900
      5 C3          -3.9680    -2.5800    -0.0030 c3         1 IPF       0.046700
      6 C4          -4.9520    -1.6370    -0.7550 c3         1 IPF      -0.018200
      7 C5          -5.9610    -2.3870    -1.5890 cc         1 IPF      -0.138400
      8 C6          -5.7310    -3.0160    -2.8100 cd         1 IPF      -0.166100
      9 N2          -6.9170    -3.6520    -3.2510 na         1 IPF      -0.223700
     10 C7          -7.8680    -3.3960    -2.2820 ca         1 IPF      -0.050200
     11 C8          -7.3410    -2.6380    -1.2730 ca         1 IPF      -0.093800
     12 C9          -8.1170    -2.2290    -0.1770 ca         1 IPF      -0.061000
     13 C10         -9.4670    -2.6360    -0.1320 ca         1 IPF      -0.145000
     14 C11        -10.0100    -3.4270    -1.1710 ca         1 IPF      -0.091000
     15 C12         -9.2060    -3.8130    -2.2640 ca         1 IPF      -0.133000
     16 C13         -2.8830    -1.8260     0.8350 c          1 IPF       0.601100
     17 O13         -2.5720    -2.1400     1.9790 o          1 IPF      -0.588100
     18 N3          -2.2790    -0.7620     0.1950 ns         1 IPF      -0.496900
     19 C14         -1.3250     0.1830     0.8190 c3         1 IPF       0.034700
     20 C15          0.1610    -0.1650     0.4910 c3         1 IPF      -0.069700
     21 C16          0.6030    -1.5090     1.1160 c3         1 IPF      -0.083600
     22 C17          0.4790    -0.1270    -1.0250 c3         1 IPF      -0.083600
     23 C18         -1.6950     1.6330     0.3950 c          1 IPF       0.598100
     24 O18         -2.3190     1.8890    -0.6280 o          1 IPF      -0.600100
     25 N4          -1.2830     2.6160     1.2730 ns         1 IPF      -0.496900
     26 C19         -1.6420     4.0420     1.1660 c3         1 IPF       0.075700
     27 C20         -2.7760     4.3640     2.1750 c3         1 IPF      -0.043100
     28 C21         -3.9470     3.3880     2.0660 ca         1 IPF      -0.087300
     29 C22         -4.0470     2.2900     2.9440 ca         1 IPF      -0.106000
     30 C23         -5.0900     1.3580     2.8010 ca         1 IPF      -0.105000
     31 C24         -6.0450     1.5230     1.7840 ca         1 IPF      -0.111000
     32 C25         -5.9560     2.6190     0.9100 ca         1 IPF      -0.105000
     33 C26         -4.9090     3.5480     1.0490 ca         1 IPF      -0.106000
     34 C27         -0.3790     4.9470     1.3120 c3         1 IPF       0.133300
     35 O27         -0.7360     6.3330     1.1960 oh         1 IPF      -0.655000
     36 N5           3.1710     4.5570    -0.3580 n          1 IPF      -0.401800
     37 C28          2.1620     5.0580     0.6150 c5         1 IPF       0.080700
     38 C29          2.4310     6.5930     0.5860 c5         1 IPF      -0.086400
     39 C30          3.9680     6.6250     0.4330 c5         1 IPF      -0.100400
     40 C31          4.1750     5.5920    -0.7020 c5         1 IPF       0.101000
     41 C32          0.7080     4.6290     0.2390 c3         1 IPF       0.126300
     42 O32          0.3160     5.1920    -1.0340 oh         1 IPF      -0.649000
     43 N6           4.5500     1.1960    -1.4620 ns         1 IPF      -0.481900
     44 C33          4.3750     2.6610    -1.6040 c3         1 IPF       0.035700
     45 C34          3.8120     3.0430    -3.0110 c3         1 IPF      -0.060700
     46 C35          4.7990     2.7150    -4.1560 c3         1 IPF      -0.090100
     47 C36          2.4170     2.4280    -3.2880 c3         1 IPF      -0.090100
     48 O37          2.9550     2.3910     0.3530 o          1 IPF      -0.626100
     49 N7           6.9130    -1.7390    -1.5240 ns         1 IPF      -0.485900
     50 C38          5.5980    -1.0560    -1.4290 c3         1 IPF       0.045700
     51 C39          4.8080    -1.4440    -0.1430 c3         1 IPF      -0.026200
     52 C40          4.5440    -2.9260    -0.0430 cc         1 IPF      -0.140400
     53 C41          3.5310    -3.6340    -0.6840 cd         1 IPF      -0.165100
     54 N8           3.6420    -5.0110    -0.3740 na         1 IPF      -0.223700
     55 C42          4.7310    -5.1240     0.4690 ca         1 IPF      -0.049200
     56 C43          5.2960    -3.9000     0.6990 ca         1 IPF      -0.094800
     57 C44          6.4050    -3.7470     1.5450 ca         1 IPF      -0.062000
     58 C45          6.9430    -4.9040     2.1470 ca         1 IPF      -0.143000
     59 C46          6.3660    -6.1720     1.9010 ca         1 IPF      -0.089000
     60 C47          5.2430    -6.2900     1.0550 ca         1 IPF      -0.133000
     61 O48          6.7400     1.0430    -2.0490 o          1 IPF      -0.602100
     62 O49          7.9460    -0.7830     0.2800 o          1 IPF      -0.615100
     63 C50          9.1720    -2.4580    -0.9420 c3         1 IPF      -0.176100
     64 H21         -5.4050    -5.3520     2.6930 hc         1 IPF       0.059367
     65 H22A        -6.8380    -4.4020     3.2730 hc         1 IPF       0.059367
     66 H23A        -6.7190    -5.1400     1.6230 hc         1 IPF       0.059367
     67 HN1         -4.5700    -4.5860     0.5130 hn         1 IPF       0.318500
     68 H3          -3.4020    -3.1160    -0.7770 h1         1 IPF       0.056700
     69 H41A        -5.4620    -0.9870    -0.0350 hc         1 IPF       0.066700
     70 H42         -4.3910    -0.9670    -1.4160 hc         1 IPF       0.066700
     71 H6          -4.8110    -3.0660    -3.3870 h4         1 IPF       0.209000
     72 HN2         -7.0440    -4.1890    -4.1040 hn         1 IPF       0.349000
     73 H9          -7.6960    -1.6140     0.6140 ha         1 IPF       0.132000
     74 H10        -10.0940    -2.3370     0.7060 ha         1 IPF       0.113000
     75 H11        -11.0530    -3.7350    -1.1300 ha         1 IPF       0.110000
     76 H12         -9.6160    -4.4160    -3.0710 ha         1 IPF       0.111000
     77 HN3         -2.5930    -0.5540    -0.7460 hn         1 IPF       0.332500
     78 H14         -1.4590     0.1440     1.9090 h1         1 IPF       0.082700
     79 H15          0.7800     0.6090     0.9620 hc         1 IPF       0.068700
     80 H161         1.6800    -1.6640     0.9800 hc         1 IPF       0.036367
     81 H162         0.3950    -1.5240     2.1920 hc         1 IPF       0.036367
     82 H163         0.0790    -2.3530     0.6510 hc         1 IPF       0.036367
     83 H171        -0.0980    -0.8840    -1.5690 hc         1 IPF       0.036367
     84 H172         0.2470     0.8560    -1.4520 hc         1 IPF       0.036367
     85 H173         1.5430    -0.3220    -1.2010 hc         1 IPF       0.036367
     86 HN4         -0.7900     2.3050     2.1020 hn         1 IPF       0.311500
     87 H19         -2.0460     4.2190     0.1590 h1         1 IPF       0.095700
     88 H201        -2.3660     4.3470     3.1930 hc         1 IPF       0.055200
     89 H202        -3.1320     5.3880     2.0080 hc         1 IPF       0.055200
     90 H22         -3.3060     2.1470     3.7270 ha         1 IPF       0.105000
     91 H23         -5.1550     0.5060     3.4740 ha         1 IPF       0.125000
     92 H24         -6.8500     0.8000     1.6720 ha         1 IPF       0.112000
     93 H25         -6.6930     2.7460     0.1190 ha         1 IPF       0.125000
     94 H26         -4.8380     4.3850     0.3580 ha         1 IPF       0.105000
     95 H1           0.0510     4.7540     2.3060 h1         1 IPF       0.074700
     96 H27         -0.5930     6.5300     0.2410 ho         1 IPF       0.446000
     97 H28          2.3890     4.6580     1.6130 h1         1 IPF       0.072700
     98 H291         1.9470     7.0930    -0.2620 hc         1 IPF       0.056700
     99 H292         2.0890     7.0940     1.4990 hc         1 IPF       0.056700
    100 H301         4.3510     7.6180     0.1730 hc         1 IPF       0.059200
    101 H302         4.4680     6.3080     1.3570 hc         1 IPF       0.059200
    102 H311         3.9590     6.0320    -1.6850 h1         1 IPF       0.054200
    103 H312         5.2040     5.2090    -0.7090 h1         1 IPF       0.054200
    104 H32          0.7460     3.5360     0.1450 h1         1 IPF       0.112700
    105 H2           1.0910     5.1030    -1.6300 ho         1 IPF       0.437000
    106 HN6          3.7560     0.6710    -1.1150 hn         1 IPF       0.335500
    107 H33          5.3530     3.1420    -1.4750 h1         1 IPF       0.089700
    108 H34          3.6840     4.1310    -3.0330 hc         1 IPF       0.046700
    109 H351         4.4290     3.1120    -5.1090 hc         1 IPF       0.039367
    110 H352         5.7810     3.1640    -3.9630 hc         1 IPF       0.039367
    111 H353         4.9290     1.6320    -4.2690 hc         1 IPF       0.039367
    112 H361         1.6950     2.7220    -2.5170 hc         1 IPF       0.039367
    113 H362         2.0300     2.7740    -4.2540 hc         1 IPF       0.039367
    114 H363         2.4660     1.3330    -3.3160 hc         1 IPF       0.039367
    115 HN7          7.0440    -2.4230    -2.2590 hn         1 IPF       0.322500
    116 H38          5.0000    -1.4220    -2.2740 h1         1 IPF       0.063700
    117 H391         5.3440    -1.0920     0.7450 hc         1 IPF       0.065200
    118 H392         3.8400    -0.9310    -0.1280 hc         1 IPF       0.065200
    119 H41          2.7520    -3.2610    -1.3440 h4         1 IPF       0.210000
    120 HN8          3.0440    -5.7640    -0.7030 hn         1 IPF       0.349000
    121 H44          6.8360    -2.7690     1.7390 ha         1 IPF       0.130000
    122 H45          7.8040    -4.8200     2.8060 ha         1 IPF       0.113000
    123 H46          6.7860    -7.0590     2.3710 ha         1 IPF       0.110000
    124 H47          4.7870    -7.2590     0.8660 ha         1 IPF       0.112000
    125 H501         9.9950    -2.2940    -0.2380 hc         1 IPF       0.059700
    126 H502         8.8480    -3.5050    -0.9460 hc         1 IPF       0.059700
    127 H503         9.4880    -2.3070    -1.9800 hc         1 IPF       0.059700
    128 C37          3.4740     3.1770    -0.4350 c          1 IPF       0.599100
    129 C48          5.7120     0.4860    -1.6770 c          1 IPF       0.609100
    130 C49          7.9670    -1.5720    -0.6530 c          1 IPF       0.607100
@<TRIPOS>BOND
     1     1     2 2   
     2     1     3 1   
     3     1     4 1   
     4     3    64 1   
     5     3    65 1   
     6     3    66 1   
     7     4     5 1   
     8     4    67 1   
     9     5     6 1   
    10     5    16 1   
    11     5    68 1   
    12     6     7 1   
    13     6    69 1   
    14     6    70 1   
    15     7     8 2   
    16     7    11 1   
    17     8     9 1   
    18     8    71 1   
    19     9    10 1   
    20     9    72 1   
    21    10    11 ar  
    22    10    15 ar  
    23    11    12 ar  
    24    12    13 ar  
    25    12    73 1   
    26    13    14 ar  
    27    13    74 1   
    28    14    15 ar  
    29    14    75 1   
    30    15    76 1   
    31    16    17 2   
    32    16    18 1   
    33    18    19 1   
    34    18    77 1   
    35    19    20 1   
    36    19    23 1   
    37    19    78 1   
    38    20    21 1   
    39    20    22 1   
    40    20    79 1   
    41    21    80 1   
    42    21    81 1   
    43    21    82 1   
    44    22    83 1   
    45    22    84 1   
    46    22    85 1   
    47    23    24 2   
    48    23    25 1   
    49    25    26 1   
    50    25    86 1   
    51    26    27 1   
    52    26    34 1   
    53    26    87 1   
    54    27    28 1   
    55    27    88 1   
    56    27    89 1   
    57    28    29 ar  
    58    28    33 ar  
    59    29    30 ar  
    60    29    90 1   
    61    30    31 ar  
    62    30    91 1   
    63    31    32 ar  
    64    31    92 1   
    65    32    33 ar  
    66    32    93 1   
    67    33    94 1   
    68    34    35 1   
    69    34    41 1   
    70    34    95 1   
    71    35    96 1   
    72    36    37 1   
    73    36    40 1   
    74    36   128 1   
    75    37    38 1   
    76    37    41 1   
    77    37    97 1   
    78    38    39 1   
    79    38    98 1   
    80    38    99 1   
    81    39    40 1   
    82    39   100 1   
    83    39   101 1   
    84    40   102 1   
    85    40   103 1   
    86    41    42 1   
    87    41   104 1   
    88    42   105 1   
    89    43    44 1   
    90    43   106 1   
    91    43   129 1   
    92    44    45 1   
    93    44   107 1   
    94    44   128 1   
    95    45    46 1   
    96    45    47 1   
    97    45   108 1   
    98    46   109 1   
    99    46   110 1   
   100    46   111 1   
   101    47   112 1   
   102    47   113 1   
   103    47   114 1   
   104    48   128 2   
   105    49    50 1   
   106    49   115 1   
   107    49   130 1   
   108    50    51 1   
   109    50   116 1   
   110    50   129 1   
   111    51    52 1   
   112    51   117 1   
   113    51   118 1   
   114    52    53 2   
   115    52    56 1   
   116    53    54 1   
   117    53   119 1   
   118    54    55 1   
   119    54   120 1   
   120    55    56 ar  
   121    55    60 ar  
   122    56    57 ar  
   123    57    58 ar  
   124    57   121 1   
   125    58    59 ar  
   126    58   122 1   
   127    59    60 ar  
   128    59   123 1   
   129    60   124 1   
   130    61   129 2   
   131    62   130 2   
   132    63   125 1   
   133    63   126 1   
   134    63   127 1   
   135    63   130 1   
@<TRIPOS>SUBSTRUCTURE
     1 IPF         1 TEMP              0 ****  ****    0 ROOT
