@<TRIPOS>MOLECULE
IPF
  130   135     1     0     0
SMALL
abcg2


@<TRIPOS>ATOM
      1 C1          -5.0950    -3.2710     2.1430 c          1 IPF       0.619100
      2 O1          -5.2380    -2.1210     2.5350 o          1 IPF      -0.617100
      3 C2          -5.7470    -4.4340     2.8480 c3         1 IPF      -0.178100
      4 N1          -4.3820    -3.5890     1.0500 ns         1 IPF      -0.484900
      5 C3          -3.7560    -2.6250     0.1870 c3         1 IPF       0.046700
      6 C4          -4.7770    -1.7400    -0.5580 c3         1 IPF      -0.018200
      7 C5          -5.8220    -2.5500    -1.2520 cc         1 IPF      -0.138400
      8 C6          -5.6890    -3.1960    -2.4500 cd         1 IPF      -0.166100
      9 N2          -6.8370    -3.8720    -2.7530 na         1 IPF      -0.223700
     10 C7          -7.7510    -3.6760    -1.7600 ca         1 IPF      -0.050200
     11 C8          -7.1460    -2.8460    -0.7880 ca         1 IPF      -0.093800
     12 C9          -7.8880    -2.4730     0.3400 ca         1 IPF      -0.061000
     13 C10         -9.1810    -2.9360     0.4740 ca         1 IPF      -0.145000
     14 C11         -9.7600    -3.7680    -0.5000 ca         1 IPF      -0.091000
     15 C12         -9.0560    -4.1470    -1.6270 ca         1 IPF      -0.133000
     16 C13         -2.6570    -1.8540     0.9350 c          1 IPF       0.601100
     17 O13         -2.2490    -2.2130     2.0250 o          1 IPF      -0.588100
     18 N3          -2.1380    -0.8170     0.2530 ns         1 IPF      -0.496900
     19 C14         -1.1310     0.0710     0.7750 c3         1 IPF       0.034700
     20 C15          0.2960    -0.2450     0.2720 c3         1 IPF      -0.069700
     21 C16          0.7640    -1.6100     0.7640 c3         1 IPF      -0.083600
     22 C17          0.4210    -0.1510    -1.2440 c3         1 IPF      -0.083600
     23 C18         -1.5210     1.4980     0.3970 c          1 IPF       0.598100
     24 O18         -2.1480     1.7400    -0.6210 o          1 IPF      -0.600100
     25 N4          -1.0650     2.4370     1.2440 ns         1 IPF      -0.496900
     26 C19         -1.3660     3.8480     1.1530 c3         1 IPF       0.075700
     27 C20         -2.4870     4.2110     2.1430 c3         1 IPF      -0.043100
     28 C21         -3.7270     3.4150     1.8500 ca         1 IPF      -0.087300
     29 C22         -3.9370     2.1670     2.4300 ca         1 IPF      -0.106000
     30 C23         -5.0250     1.3850     2.0660 ca         1 IPF      -0.105000
     31 C24         -5.9360     1.8540     1.1290 ca         1 IPF      -0.111000
     32 C25         -5.7530     3.1090     0.5630 ca         1 IPF      -0.105000
     33 C26         -4.6540     3.8780     0.9190 ca         1 IPF      -0.106000
     34 C27         -0.0690     4.6450     1.3910 c3         1 IPF       0.133300
     35 O27         -0.3240     6.0170     1.5640 oh         1 IPF      -0.655000
     36 N5           3.3570     4.2590    -0.3270 n          1 IPF      -0.401800
     37 C28          2.3910     4.6280     0.7160 c5         1 IPF       0.080700
     38 C29          2.7520     6.0840     1.0420 c5         1 IPF      -0.086400
     39 C30          4.1970     6.2260     0.5780 c5         1 IPF      -0.100400
     40 C31          4.2180     5.3810    -0.6850 c5         1 IPF       0.101000
     41 C32          0.9480     4.3770     0.2660 c3         1 IPF       0.126300
     42 O32          0.6090     5.0670    -0.9150 oh         1 IPF      -0.649000
     43 N6           4.6130     1.2320    -1.8880 ns         1 IPF      -0.481900
     44 C33          4.4730     2.6660    -1.8410 c3         1 IPF       0.035700
     45 C34          3.9470     3.2430    -3.1730 c3         1 IPF      -0.060700
     46 C35          4.8960     2.9090    -4.3170 c3         1 IPF      -0.090100
     47 C36          2.5260     2.7850    -3.4860 c3         1 IPF      -0.090100
     48 O37          2.8970     2.0680    -0.1470 o          1 IPF      -0.626100
     49 N7           6.7960    -1.4360    -1.0320 ns         1 IPF      -0.485900
     50 C38          5.7060    -0.9460    -1.8370 c3         1 IPF       0.045700
     51 C39          4.3430    -1.5200    -1.4070 c3         1 IPF      -0.026200
     52 C40          4.3660    -3.0030    -1.2520 cc         1 IPF      -0.140400
     53 C41          4.2280    -3.9330    -2.2440 cd         1 IPF      -0.165100
     54 N8           4.3330    -5.1930    -1.7260 na         1 IPF      -0.223700
     55 C42          4.5340    -5.1130    -0.3800 ca         1 IPF      -0.049200
     56 C43          4.5620    -3.7420    -0.0400 ca         1 IPF      -0.094800
     57 C44          4.7410    -3.3800     1.3010 ca         1 IPF      -0.062000
     58 C45          4.8940    -4.3730     2.2480 ca         1 IPF      -0.143000
     59 C46          4.8700    -5.7310     1.8870 ca         1 IPF      -0.089000
     60 C47          4.6890    -6.1190     0.5730 ca         1 IPF      -0.133000
     61 O48          6.8610     1.1390    -2.1090 o          1 IPF      -0.602100
     62 O49          6.3090    -0.1510     0.7430 o          1 IPF      -0.615100
     63 C50          8.0960    -1.7300     0.9790 c3         1 IPF      -0.176100
     64 H21         -5.4040    -5.4060     2.4980 hc         1 IPF       0.059367
     65 H22A        -5.5680    -4.3640     3.9190 hc         1 IPF       0.059367
     66 H23A        -6.8260    -4.3790     2.6910 hc         1 IPF       0.059367
     67 HN1         -4.3280    -4.5550     0.7770 hn         1 IPF       0.318500
     68 H3          -3.2320    -3.2120    -0.5740 h1         1 IPF       0.056700
     69 H41A        -5.2400    -1.0410     0.1380 hc         1 IPF       0.066700
     70 H42         -4.2530    -1.1350    -1.3020 hc         1 IPF       0.066700
     71 H6          -4.8460    -3.2180    -3.1230 h4         1 IPF       0.209000
     72 HN2         -6.9850    -4.4120    -3.5890 hn         1 IPF       0.349000
     73 H9          -7.4520    -1.8370     1.1000 ha         1 IPF       0.132000
     74 H10         -9.7640    -2.6550     1.3420 ha         1 IPF       0.113000
     75 H11        -10.7760    -4.1160    -0.3650 ha         1 IPF       0.110000
     76 H12         -9.5050    -4.7840    -2.3790 ha         1 IPF       0.111000
     77 HN3         -2.5570    -0.5390    -0.6200 hn         1 IPF       0.332500
     78 H14         -1.1310    -0.0270     1.8630 h1         1 IPF       0.082700
     79 H15          0.9500     0.5140     0.7110 hc         1 IPF       0.068700
     80 H161         1.8140    -1.7630     0.5060 hc         1 IPF       0.036367
     81 H162         0.6730    -1.7080     1.8460 hc         1 IPF       0.036367
     82 H163         0.1980    -2.4200     0.3010 hc         1 IPF       0.036367
     83 H171        -0.2330    -0.8700    -1.7410 hc         1 IPF       0.036367
     84 H172         0.1890     0.8420    -1.6260 hc         1 IPF       0.036367
     85 H173         1.4430    -0.3780    -1.5470 hc         1 IPF       0.036367
     86 HN4         -0.6430     2.1250     2.1060 hn         1 IPF       0.311500
     87 H19         -1.7180     4.0440     0.1370 h1         1 IPF       0.095700
     88 H201        -2.1380     4.0210     3.1620 hc         1 IPF       0.055200
     89 H202        -2.7020     5.2780     2.0700 hc         1 IPF       0.055200
     90 H22         -3.2380     1.7920     3.1680 ha         1 IPF       0.105000
     91 H23         -5.1540     0.4040     2.5020 ha         1 IPF       0.125000
     92 H24         -6.7850     1.2470     0.8430 ha         1 IPF       0.112000
     93 H25         -6.4630     3.4880    -0.1610 ha         1 IPF       0.125000
     94 H26         -4.5090     4.8500     0.4620 ha         1 IPF       0.105000
     95 H1           0.3610     4.3040     2.3410 h1         1 IPF       0.074700
     96 H27         -0.7720     6.3520     0.7790 ho         1 IPF       0.446000
     97 H28          2.5680     4.0010     1.5960 h1         1 IPF       0.072700
     98 H291         2.1310     6.7950     0.4910 hc         1 IPF       0.056700
     99 H292         2.6140     6.3010     2.0990 hc         1 IPF       0.056700
    100 H301         4.4860     7.2590     0.3900 hc         1 IPF       0.059200
    101 H302         4.8850     5.8080     1.3170 hc         1 IPF       0.059200
    102 H311         3.8030     5.9390    -1.5300 h1         1 IPF       0.054200
    103 H312         5.2180     5.0480    -0.9590 h1         1 IPF       0.054200
    104 H32          0.8770     3.3190     0.0160 h1         1 IPF       0.112700
    105 H2           0.8560     5.9940    -0.8330 ho         1 IPF       0.437000
    106 HN6          3.8070     0.7360    -1.5410 hn         1 IPF       0.335500
    107 H33          5.4570     3.0980    -1.6420 h1         1 IPF       0.089700
    108 H34          3.9310     4.3310    -3.0680 hc         1 IPF       0.046700
    109 H351         4.5710     3.4050    -5.2330 hc         1 IPF       0.039367
    110 H352         5.9160     3.2310    -4.1040 hc         1 IPF       0.039367
    111 H353         4.9190     1.8360    -4.5150 hc         1 IPF       0.039367
    112 H361         1.8100     3.1360    -2.7430 hc         1 IPF       0.039367
    113 H362         2.2090     3.1850    -4.4510 hc         1 IPF       0.039367
    114 H363         2.4550     1.6970    -3.5470 hc         1 IPF       0.039367
    115 HN7          7.3600    -2.1810    -1.4040 hn         1 IPF       0.322500
    116 H38          5.8990    -1.3020    -2.8530 h1         1 IPF       0.063700
    117 H391         4.0200    -1.0610    -0.4690 hc         1 IPF       0.065200
    118 H392         3.6060    -1.2540    -2.1690 hc         1 IPF       0.065200
    119 H41          4.0590    -3.7880    -3.3000 h4         1 IPF       0.210000
    120 HN8          4.2450    -6.0420    -2.2590 hn         1 IPF       0.349000
    121 H44          4.7640    -2.3370     1.5950 ha         1 IPF       0.130000
    122 H45          5.0350    -4.1060     3.2880 ha         1 IPF       0.113000
    123 H46          4.9930    -6.4860     2.6510 ha         1 IPF       0.110000
    124 H47          4.6660    -7.1660     0.2970 ha         1 IPF       0.112000
    125 H501         8.7040    -1.0040     1.5160 hc         1 IPF       0.059700
    126 H502         7.6470    -2.3940     1.7200 hc         1 IPF       0.059700
    127 H503         8.7420    -2.3270     0.3380 hc         1 IPF       0.059700
    128 C37          3.5210     2.9780    -0.6830 c          1 IPF       0.599100
    129 C48          5.7880     0.5870    -1.9290 c          1 IPF       0.609100
    130 C49          6.9950    -1.0270     0.2310 c          1 IPF       0.607100
@<TRIPOS>BOND
     1     1     2 2   
     2     1     3 1   
     3     1     4 1   
     4     3    64 1   
     5     3    65 1   
     6     3    66 1   
     7     4     5 1   
     8     4    67 1   
     9     5     6 1   
    10     5    16 1   
    11     5    68 1   
    12     6     7 1   
    13     6    69 1   
    14     6    70 1   
    15     7     8 2   
    16     7    11 1   
    17     8     9 1   
    18     8    71 1   
    19     9    10 1   
    20     9    72 1   
    21    10    11 ar  
    22    10    15 ar  
    23    11    12 ar  
    24    12    13 ar  
    25    12    73 1   
    26    13    14 ar  
    27    13    74 1   
    28    14    15 ar  
    29    14    75 1   
    30    15    76 1   
    31    16    17 2   
    32    16    18 1   
    33    18    19 1   
    34    18    77 1   
    35    19    20 1   
    36    19    23 1   
    37    19    78 1   
    38    20    21 1   
    39    20    22 1   
    40    20    79 1   
    41    21    80 1   
    42    21    81 1   
    43    21    82 1   
    44    22    83 1   
    45    22    84 1   
    46    22    85 1   
    47    23    24 2   
    48    23    25 1   
    49    25    26 1   
    50    25    86 1   
    51    26    27 1   
    52    26    34 1   
    53    26    87 1   
    54    27    28 1   
    55    27    88 1   
    56    27    89 1   
    57    28    29 ar  
    58    28    33 ar  
    59    29    30 ar  
    60    29    90 1   
    61    30    31 ar  
    62    30    91 1   
    63    31    32 ar  
    64    31    92 1   
    65    32    33 ar  
    66    32    93 1   
    67    33    94 1   
    68    34    35 1   
    69    34    41 1   
    70    34    95 1   
    71    35    96 1   
    72    36    37 1   
    73    36    40 1   
    74    36   128 1   
    75    37    38 1   
    76    37    41 1   
    77    37    97 1   
    78    38    39 1   
    79    38    98 1   
    80    38    99 1   
    81    39    40 1   
    82    39   100 1   
    83    39   101 1   
    84    40   102 1   
    85    40   103 1   
    86    41    42 1   
    87    41   104 1   
    88    42   105 1   
    89    43    44 1   
    90    43   106 1   
    91    43   129 1   
    92    44    45 1   
    93    44   107 1   
    94    44   128 1   
    95    45    46 1   
    96    45    47 1   
    97    45   108 1   
    98    46   109 1   
    99    46   110 1   
   100    46   111 1   
   101    47   112 1   
   102    47   113 1   
   103    47   114 1   
   104    48   128 2   
   105    49    50 1   
   106    49   115 1   
   107    49   130 1   
   108    50    51 1   
   109    50   116 1   
   110    50   129 1   
   111    51    52 1   
   112    51   117 1   
   113    51   118 1   
   114    52    53 2   
   115    52    56 1   
   116    53    54 1   
   117    53   119 1   
   118    54    55 1   
   119    54   120 1   
   120    55    56 ar  
   121    55    60 ar  
   122    56    57 ar  
   123    57    58 ar  
   124    57   121 1   
   125    58    59 ar  
   126    58   122 1   
   127    59    60 ar  
   128    59   123 1   
   129    60   124 1   
   130    61   129 2   
   131    62   130 2   
   132    63   125 1   
   133    63   126 1   
   134    63   127 1   
   135    63   130 1   
@<TRIPOS>SUBSTRUCTURE
     1 IPF         1 TEMP              0 ****  ****    0 ROOT
