@<TRIPOS>MOLECULE
IPG
   18    17     1     0     0
SMALL
No Charge or Current Charge


@<TRIPOS>ATOM
      1 N          -17.0400    22.9080     4.1810 n7         1 IPG      -0.869400
      2 CA         -18.4530    22.3750     4.1820 c3         1 IPG       0.003800
      3 C          -18.9780    21.7500     2.8330 c          1 IPG       0.700000
      4 O          -18.2900    20.9000     2.2800 o          1 IPG      -0.738500
      5 CN         -16.7590    24.2240     3.5550 c3         1 IPG       0.185500
      6 CG1        -16.9830    24.2020     2.0270 c3         1 IPG      -0.100100
      7 CG2        -17.5350    25.3650     4.2530 c3         1 IPG      -0.100100
      8 OXT        -20.0560    22.1280     2.3940 o          1 IPG      -0.738500
      9 H          -16.4450    22.2040     3.7210 hn         1 IPG       0.436000
     10 HA1        -18.5220    21.5690     4.9250 h1         1 IPG       0.022700
     11 HA2        -19.1630    23.1480     4.5050 h1         1 IPG       0.022700
     12 HCN        -15.6920    24.4370     3.7070 h1         1 IPG       0.023700
     13 HG11       -16.6030    25.1270     1.5780 hc         1 IPG       0.025367
     14 HG12       -16.4510    23.3620     1.5650 hc         1 IPG       0.025367
     15 HG13       -18.0470    24.1250     1.7790 hc         1 IPG       0.025367
     16 HG21       -17.1910    26.3380     3.8810 hc         1 IPG       0.025367
     17 HG22       -18.6120    25.2970     4.0600 hc         1 IPG       0.025367
     18 HG23       -17.3710    25.3420     5.3370 hc         1 IPG       0.025367
@<TRIPOS>BOND
     1     1     2 1   
     2     1     5 1   
     3     1     9 1   
     4     2     3 1   
     5     2    10 1   
     6     2    11 1   
     7     3     4 1   
     8     3     8 1   
     9     5     6 1   
    10     5     7 1   
    11     5    12 1   
    12     6    13 1   
    13     6    14 1   
    14     6    15 1   
    15     7    16 1   
    16     7    17 1   
    17     7    18 1   
@<TRIPOS>SUBSTRUCTURE
     1 IPG         1 TEMP              0 ****  ****    0 ROOT
