@<TRIPOS>MOLECULE
IPG
   18    17     1     0     0
SMALL
bcc


@<TRIPOS>ATOM
      1 N          -17.1860    22.8790     4.0490 n7         1 IPG      -0.814200
      2 CA         -18.5930    22.5480     3.9050 c3         1 IPG       0.003800
      3 C          -18.8740    21.3280     2.9950 c          1 IPG       0.910600
      4 O          -17.8960    20.7940     2.4320 o          1 IPG      -0.843800
      5 CN         -16.7670    24.1840     3.5490 c3         1 IPG       0.185500
      6 CG1        -17.0470    24.4190     2.0610 c3         1 IPG      -0.100100
      7 CG2        -17.3470    25.3090     4.3970 c3         1 IPG      -0.100100
      8 OXT        -20.0690    20.9870     2.9100 o          1 IPG      -0.843800
      9 H          -16.6800    22.1660     3.5350 hn         1 IPG       0.380800
     10 HA1        -19.0460    22.3400     4.8830 h1         1 IPG       0.022700
     11 HA2        -19.1720    23.3850     3.5000 h1         1 IPG       0.022700
     12 HCN        -15.6790    24.2110     3.6780 h1         1 IPG       0.023700
     13 HG11       -16.6290    25.3710     1.7300 hc         1 IPG       0.025367
     14 HG12       -16.6020    23.6310     1.4510 hc         1 IPG       0.025367
     15 HG13       -18.1180    24.4410     1.8470 hc         1 IPG       0.025367
     16 HG21       -16.9400    26.2740     4.0900 hc         1 IPG       0.025367
     17 HG22       -18.4330    25.3700     4.2990 hc         1 IPG       0.025367
     18 HG23       -17.1130    25.1640     5.4520 hc         1 IPG       0.025367
@<TRIPOS>BOND
     1     1     2 1   
     2     1     5 1   
     3     1     9 1   
     4     2     3 1   
     5     2    10 1   
     6     2    11 1   
     7     3     4 1   
     8     3     8 1   
     9     5     6 1   
    10     5     7 1   
    11     5    12 1   
    12     6    13 1   
    13     6    14 1   
    14     6    15 1   
    15     7    16 1   
    16     7    17 1   
    17     7    18 1   
@<TRIPOS>SUBSTRUCTURE
     1 IPG         1 TEMP              0 ****  ****    0 ROOT
