@<TRIPOS>MOLECULE
IPH
   13    13     1     0     0
SMALL
bcc


@<TRIPOS>ATOM
      1 C1           9.9530    35.3810    32.6340 ca         1 IPH       0.138100
      2 C2          10.5470    36.4410    31.9520 ca         1 IPH      -0.194000
      3 C3          11.6330    37.0990    32.5100 ca         1 IPH      -0.089500
      4 C4          12.1390    36.7160    33.7460 ca         1 IPH      -0.167000
      5 C5          11.5420    35.6610    34.4220 ca         1 IPH      -0.089500
      6 C6          10.4540    34.9930    33.8750 ca         1 IPH      -0.194000
      7 O1           8.9020    34.7700    32.0500 oh         1 IPH      -0.497100
      8 H2          10.1560    36.7430    30.9880 ha         1 IPH       0.137000
      9 H3          12.0860    37.9200    31.9690 ha         1 IPH       0.130000
     10 H4          12.9880    37.2330    34.1740 ha         1 IPH       0.133000
     11 H5          11.9230    35.3480    35.3850 ha         1 IPH       0.130000
     12 H6           9.9980    34.1700    34.4140 ha         1 IPH       0.137000
     13 HO1          8.5690    34.0590    32.6100 ho         1 IPH       0.425000
@<TRIPOS>BOND
     1     1     2 ar  
     2     1     6 ar  
     3     1     7 1   
     4     2     3 ar  
     5     2     8 1   
     6     3     4 ar  
     7     3     9 1   
     8     4     5 ar  
     9     4    10 1   
    10     5     6 ar  
    11     5    11 1   
    12     6    12 1   
    13     7    13 1   
@<TRIPOS>SUBSTRUCTURE
     1 IPH         1 TEMP              0 ****  ****    0 ROOT
