@<TRIPOS>MOLECULE
IPH
   13    13     1     0     0
SMALL
No Charge or Current Charge


@<TRIPOS>ATOM
      1 C1           9.9430    35.3860    32.6140 ca         1 IPH       0.138100
      2 C2          10.5450    36.4540    31.9300 ca         1 IPH      -0.176000
      3 C3          11.6460    37.1220    32.4950 ca         1 IPH      -0.071500
      4 C4          12.1420    36.7180    33.7470 ca         1 IPH      -0.149000
      5 C5          11.5390    35.6490    34.4330 ca         1 IPH      -0.071500
      6 C6          10.4380    34.9830    33.8650 ca         1 IPH      -0.176000
      7 O1           8.8770    34.7460    32.0580 oh         1 IPH      -0.536100
      8 H2          10.1610    36.7640    30.9620 ha         1 IPH       0.119000
      9 H3          12.1130    37.9490    31.9650 ha         1 IPH       0.112000
     10 H4          12.9940    37.2340    34.1860 ha         1 IPH       0.115000
     11 H5          11.9250    35.3380    35.4020 ha         1 IPH       0.112000
     12 H6           9.9770    34.1570    34.4020 ha         1 IPH       0.119000
     13 HO1          8.5890    34.0350    32.6700 ho         1 IPH       0.464000
@<TRIPOS>BOND
     1     1     2 ar  
     2     1     6 ar  
     3     1     7 1   
     4     2     3 ar  
     5     2     8 1   
     6     3     4 ar  
     7     3     9 1   
     8     4     5 ar  
     9     4    10 1   
    10     5     6 ar  
    11     5    11 1   
    12     6    12 1   
    13     7    13 1   
@<TRIPOS>SUBSTRUCTURE
     1 IPH         1 TEMP              0 ****  ****    0 ROOT
