@<TRIPOS>MOLECULE
IPJ
   29    30     1     0     0
SMALL
No Charge or Current Charge


@<TRIPOS>ATOM
      1 O16          1.8060    -2.2120    -0.2510 o          1 IPJ      -0.540100
      2 C7           1.7230    -0.9960    -0.1150 c          1 IPJ       0.584900
      3 C2           2.9810    -0.1480    -0.0730 ca         1 IPJ      -0.164600
      4 C3           2.9650     1.2460    -0.3290 ca         1 IPJ      -0.065000
      5 C4           4.1540     1.9950    -0.2830 ca         1 IPJ      -0.126000
      6 C5           5.3750     1.3690     0.0120 ca         1 IPJ      -0.085000
      7 C6           5.4080    -0.0120     0.2550 ca         1 IPJ      -0.126000
      8 C1           4.2220    -0.7650     0.2090 ca         1 IPJ      -0.065000
      9 C8           0.3760    -0.3520    -0.0030 ce         1 IPJ      -0.318200
     10 C9          -0.8130    -1.0200    -0.1020 cf         1 IPJ      -0.063200
     11 C10         -2.1920    -0.4980     0.0050 ca         1 IPJ      -0.120800
     12 C15         -3.2780    -1.3900    -0.1240 ca         1 IPJ      -0.043000
     13 C14         -4.6010    -0.9230    -0.0270 ca         1 IPJ      -0.185000
     14 C13         -4.8520     0.4370     0.1980 ca         1 IPJ       0.159100
     15 O17         -6.1370     0.8790     0.2900 oh         1 IPJ      -0.528100
     16 C12         -3.7820     1.3340     0.3280 ca         1 IPJ      -0.185000
     17 C11         -2.4570     0.8710     0.2320 ca         1 IPJ      -0.043000
     18 H1           2.0460     1.7630    -0.5890 ha         1 IPJ       0.122500
     19 H2           4.1280     3.0640    -0.4840 ha         1 IPJ       0.115500
     20 H3           6.2930     1.9520     0.0450 ha         1 IPJ       0.114000
     21 H4           6.3530    -0.5010     0.4790 ha         1 IPJ       0.115500
     22 H5           4.2720    -1.8350     0.4040 ha         1 IPJ       0.122500
     23 H6           0.3650     0.7130     0.1930 ha         1 IPJ       0.181000
     24 H7          -0.7640    -2.0970    -0.2880 ha         1 IPJ       0.192000
     25 H8          -3.1010    -2.4490    -0.3000 ha         1 IPJ       0.116500
     26 H9          -5.4300    -1.6180    -0.1280 ha         1 IPJ       0.124000
     27 H10         -6.1210     1.8470     0.4480 ho         1 IPJ       0.469000
     28 H11         -3.9660     2.3910     0.5030 ha         1 IPJ       0.124000
     29 H12         -1.6460     1.5860     0.3350 ha         1 IPJ       0.116500
@<TRIPOS>BOND
     1     1     2 2   
     2     2     3 1   
     3     2     9 1   
     4     3     4 ar  
     5     3     8 ar  
     6     4     5 ar  
     7     4    18 1   
     8     5     6 ar  
     9     5    19 1   
    10     6     7 ar  
    11     6    20 1   
    12     7     8 ar  
    13     7    21 1   
    14     8    22 1   
    15     9    10 2   
    16     9    23 1   
    17    10    11 1   
    18    10    24 1   
    19    11    12 ar  
    20    11    17 ar  
    21    12    13 ar  
    22    12    25 1   
    23    13    14 ar  
    24    13    26 1   
    25    14    15 1   
    26    14    16 ar  
    27    15    27 1   
    28    16    17 ar  
    29    16    28 1   
    30    17    29 1   
@<TRIPOS>SUBSTRUCTURE
     1 IPJ         1 TEMP              0 ****  ****    0 ROOT
