@<TRIPOS>MOLECULE
IPJ
   29    30     1     0     0
SMALL
abcg2


@<TRIPOS>ATOM
      1 O16          1.7650    -2.1710    -0.2320 o          1 IPJ      -0.540100
      2 C7           1.6770    -0.9580    -0.1210 c          1 IPJ       0.584900
      3 C2           2.9180    -0.1300    -0.0680 ca         1 IPJ      -0.164600
      4 C3           2.9110     1.2600    -0.2030 ca         1 IPJ      -0.065000
      5 C4           4.0980     1.9780    -0.1620 ca         1 IPJ      -0.126000
      6 C5           5.3050     1.3200     0.0230 ca         1 IPJ      -0.085000
      7 C6           5.3240    -0.0640     0.1590 ca         1 IPJ      -0.126000
      8 C1           4.1410    -0.7810     0.1070 ca         1 IPJ      -0.065000
      9 C8           0.3750    -0.2850    -0.0210 ce         1 IPJ      -0.318200
     10 C9          -0.7700    -0.9870    -0.0730 cf         1 IPJ      -0.063200
     11 C10         -2.1210    -0.4670     0.0180 ca         1 IPJ      -0.120800
     12 C15         -3.1950    -1.3630    -0.0350 ca         1 IPJ      -0.043000
     13 C14         -4.5050    -0.9330     0.0440 ca         1 IPJ      -0.185000
     14 C13         -4.7790     0.4270     0.1800 ca         1 IPJ       0.159100
     15 O17         -6.0620     0.8060     0.2520 oh         1 IPJ      -0.528100
     16 C12         -3.7210     1.3400     0.2350 ca         1 IPJ      -0.185000
     17 C11         -2.4180     0.8940     0.1550 ca         1 IPJ      -0.043000
     18 H1           1.9900     1.8040    -0.3590 ha         1 IPJ       0.122500
     19 H2           4.0770     3.0530    -0.2740 ha         1 IPJ       0.115500
     20 H3           6.2290     1.8820     0.0620 ha         1 IPJ       0.114000
     21 H4           6.2620    -0.5830     0.3060 ha         1 IPJ       0.115500
     22 H5           4.1650    -1.8580     0.2090 ha         1 IPJ       0.122500
     23 H6           0.3510     0.7870     0.1120 ha         1 IPJ       0.181000
     24 H7          -0.6980    -2.0640    -0.1950 ha         1 IPJ       0.192000
     25 H8          -2.9980    -2.4230    -0.1420 ha         1 IPJ       0.116500
     26 H9          -5.3200    -1.6440    -0.0010 ha         1 IPJ       0.124000
     27 H10         -6.1340     1.7640     0.3300 ho         1 IPJ       0.469000
     28 H11         -3.9200     2.4000     0.3400 ha         1 IPJ       0.124000
     29 H12         -1.6230     1.6270     0.1960 ha         1 IPJ       0.116500
@<TRIPOS>BOND
     1     1     2 2   
     2     2     3 1   
     3     2     9 1   
     4     3     4 ar  
     5     3     8 ar  
     6     4     5 ar  
     7     4    18 1   
     8     5     6 ar  
     9     5    19 1   
    10     6     7 ar  
    11     6    20 1   
    12     7     8 ar  
    13     7    21 1   
    14     8    22 1   
    15     9    10 2   
    16     9    23 1   
    17    10    11 1   
    18    10    24 1   
    19    11    12 ar  
    20    11    17 ar  
    21    12    13 ar  
    22    12    25 1   
    23    13    14 ar  
    24    13    26 1   
    25    14    15 1   
    26    14    16 ar  
    27    15    27 1   
    28    16    17 ar  
    29    16    28 1   
    30    17    29 1   
@<TRIPOS>SUBSTRUCTURE
     1 IPJ         1 TEMP              0 ****  ****    0 ROOT
