@<TRIPOS>MOLECULE
IPK
   58    62     1     0     0
SMALL
No Charge or Current Charge


@<TRIPOS>ATOM
      1 OAA         -2.7140    -3.7130    -0.9650 o          1 IPK      -0.595100
      2 CAB         -6.8880     4.7050     0.1510 ca         1 IPK      -0.111000
      3 CAC         -7.4660     3.7660     1.0220 ca         1 IPK      -0.109000
      4 CAD         -6.2480     4.2710    -1.0220 ca         1 IPK      -0.109000
      5 CAF         -7.4040     2.3950     0.7200 ca         1 IPK      -0.108500
      6 CAG         -6.1870     2.8990    -1.3240 ca         1 IPK      -0.108500
      7 CAH          0.9820    -1.5960     1.1970 ca         1 IPK      -0.097000
      8 CAI          1.3070    -2.2420    -1.1200 ca         1 IPK      -0.097000
      9 CAJ         -0.3820    -1.9200     1.0970 ca         1 IPK      -0.078500
     10 CAK         -0.0560    -2.5670    -1.2220 ca         1 IPK      -0.078500
     11 CAN         -4.2330     0.1890    -0.0410 c6         1 IPK      -0.097900
     12 CAO         -5.7380    -1.8450    -0.1830 c6         1 IPK      -0.097900
     13 CAP         -3.2420    -0.6310     0.8190 c6         1 IPK       0.096500
     14 CAQ         -4.7260    -2.6160     0.6950 c6         1 IPK       0.096500
     15 CAS         -6.6940     0.4640    -0.7750 c3         1 IPK      -0.028100
     16 SAW          3.5860     0.3760    -0.2390 ss         1 IPK      -0.249200
     17 CAX         -2.3840    -2.7720    -0.2530 c          1 IPK       0.614700
     18 CAY          1.8340    -1.7510     0.0880 ca         1 IPK      -0.081300
     19 CAZ         -6.7640     1.9530    -0.4540 ca         1 IPK      -0.078300
     20 CBA         -0.9230    -2.3900    -0.1220 ca         1 IPK      -0.129600
     21 CBE         -5.6900    -0.3240     0.1170 c6         1 IPK      -0.056700
     22 NBF         -3.3430    -2.0910     0.5360 n          1 IPK      -0.402800
     23 C21          5.3220     0.5340    -0.0410 cc         1 IPK       0.441700
     24 C22          7.2840     1.4980    -0.0280 ca         1 IPK      -0.143200
     25 N2           5.9600     1.7400    -0.2760 na         1 IPK      -0.290600
     26 N3           6.1470    -0.4550     0.3380 nd         1 IPK      -0.595100
     27 C23          7.3850     0.1850     0.3380 ca         1 IPK       0.108400
     28 N4           9.6460     1.8440     0.2070 nb         1 IPK      -0.658000
     29 C24          8.4130     2.3300    -0.0940 ca         1 IPK       0.350900
     30 C25          8.6410    -0.3410     0.6530 ca         1 IPK      -0.105000
     31 C26          9.7470     0.5340     0.5720 ca         1 IPK       0.307900
     32 HAB         -6.9350     5.7660     0.3850 ha         1 IPK       0.113000
     33 HAC         -7.9610     4.1010     1.9310 ha         1 IPK       0.112000
     34 HAD         -5.8000     4.9970    -1.6970 ha         1 IPK       0.112000
     35 HAF         -7.8540     1.6740     1.4000 ha         1 IPK       0.110000
     36 HAG         -5.6870     2.5730    -2.2330 ha         1 IPK       0.110000
     37 HAH          1.3770    -1.2280     2.1420 ha         1 IPK       0.122000
     38 HAI          1.9550    -2.3730    -1.9850 ha         1 IPK       0.122000
     39 HAJ         -1.0130    -1.8170     1.9780 ha         1 IPK       0.126000
     40 HAK         -0.4430    -2.9480    -2.1650 ha         1 IPK       0.126000
     41 HAN         -4.1680     1.2470     0.2460 hc         1 IPK       0.052450
     42 HANA        -3.9310     0.1320    -1.0960 hc         1 IPK       0.052450
     43 HAO         -5.5130    -2.0280    -1.2430 hc         1 IPK       0.052450
     44 HAOA        -6.7490    -2.2350    -0.0040 hc         1 IPK       0.052450
     45 HAP         -2.2300    -0.2550     0.6190 h1         1 IPK       0.057200
     46 HAPA        -3.4500    -0.4590     1.8850 h1         1 IPK       0.057200
     47 HAQ         -5.0170    -2.5210     1.7510 h1         1 IPK       0.057200
     48 HAQA        -4.7650    -3.6870     0.4510 h1         1 IPK       0.057200
     49 HAR          3.8990    -2.0300    -0.4790 h1         1 IPK       0.091200
     50 HARA         3.6640    -1.5750     1.2210 h1         1 IPK       0.091200
     51 HAS         -7.6960     0.0320    -0.6610 hc         1 IPK       0.049700
     52 HASA        -6.4360     0.3210    -1.8320 hc         1 IPK       0.049700
     53 HBE         -6.0050    -0.1680     1.1590 hc         1 IPK       0.048700
     54 H23          5.5230     2.6060    -0.5680 hn         1 IPK       0.370000
     55 H24          8.3400     3.3770    -0.3850 h4         1 IPK       0.022100
     56 H25          8.7660    -1.3770     0.9480 ha         1 IPK       0.137000
     57 H26         10.7480     0.1760     0.8060 h4         1 IPK       0.021100
     58 CAR          3.3100    -1.3970     0.1980 c3         1 IPK       0.120900
@<TRIPOS>BOND
     1     1    17 2   
     2     2     3 ar  
     3     2     4 ar  
     4     2    32 1   
     5     3     5 ar  
     6     3    33 1   
     7     4     6 ar  
     8     4    34 1   
     9     5    19 ar  
    10     5    35 1   
    11     6    19 ar  
    12     6    36 1   
    13     7     9 ar  
    14     7    18 ar  
    15     7    37 1   
    16     8    10 ar  
    17     8    18 ar  
    18     8    38 1   
    19     9    20 ar  
    20     9    39 1   
    21    10    20 ar  
    22    10    40 1   
    23    11    13 1   
    24    11    21 1   
    25    11    41 1   
    26    11    42 1   
    27    12    14 1   
    28    12    21 1   
    29    12    43 1   
    30    12    44 1   
    31    13    22 1   
    32    13    45 1   
    33    13    46 1   
    34    14    22 1   
    35    14    47 1   
    36    14    48 1   
    37    15    19 1   
    38    15    21 1   
    39    15    51 1   
    40    15    52 1   
    41    16    23 1   
    42    16    58 1   
    43    17    20 1   
    44    17    22 1   
    45    18    58 1   
    46    21    53 1   
    47    23    25 1   
    48    23    26 2   
    49    24    25 1   
    50    24    27 ar  
    51    24    29 ar  
    52    25    54 1   
    53    26    27 1   
    54    27    30 ar  
    55    28    29 ar  
    56    28    31 ar  
    57    29    55 1   
    58    30    31 ar  
    59    30    56 1   
    60    31    57 1   
    61    49    58 1   
    62    50    58 1   
@<TRIPOS>SUBSTRUCTURE
     1 IPK         1 TEMP              0 ****  ****    0 ROOT
