@<TRIPOS>MOLECULE
IPK
   58    62     1     0     0
SMALL
abcg2


@<TRIPOS>ATOM
      1 OAA         -2.7070    -4.0530    -0.4880 o          1 IPK      -0.595100
      2 CAB         -6.3440     4.7300     0.0480 ca         1 IPK      -0.111000
      3 CAC         -7.0490     3.8480     0.8590 ca         1 IPK      -0.109000
      4 CAD         -5.6700     4.2440    -1.0640 ca         1 IPK      -0.109000
      5 CAF         -7.0760     2.4940     0.5580 ca         1 IPK      -0.108500
      6 CAG         -5.7000     2.8860    -1.3600 ca         1 IPK      -0.108500
      7 CAH          0.9790    -1.9220     1.2680 ca         1 IPK      -0.097000
      8 CAI          1.0640    -2.1760    -1.1160 ca         1 IPK      -0.097000
      9 CAJ         -0.3710    -2.2330     1.2530 ca         1 IPK      -0.078500
     10 CAK         -0.2820    -2.5080    -1.1310 ca         1 IPK      -0.078500
     11 CAN         -4.0580     0.1020     0.0050 c6         1 IPK      -0.097900
     12 CAO         -5.6630    -1.7940    -0.1880 c6         1 IPK      -0.097900
     13 CAP         -3.1810    -0.7650     0.9030 c6         1 IPK       0.096500
     14 CAQ         -4.7470    -2.6140     0.7100 c6         1 IPK       0.096500
     15 CAS         -6.4140     0.5180    -0.8490 c3         1 IPK      -0.028100
     16 SAW          3.2440     0.2970    -0.0650 ss         1 IPK      -0.249200
     17 CAX         -2.4420    -2.9710     0.0220 c          1 IPK       0.614700
     18 CAY          1.7090    -1.8880     0.0830 ca         1 IPK      -0.081300
     19 CAZ         -6.4000     1.9920    -0.5540 ca         1 IPK      -0.078300
     20 CBA         -1.0130    -2.5210     0.0520 ca         1 IPK      -0.129600
     21 CBE         -5.5270    -0.2990     0.0950 c6         1 IPK      -0.056700
     22 NBF         -3.3650    -2.1760     0.5960 n          1 IPK      -0.402800
     23 C21          4.9590     0.5470     0.0360 cc         1 IPK       0.441700
     24 C22          6.8350     1.6700     0.0730 ca         1 IPK      -0.143200
     25 N2           5.4750     1.7990    -0.0420 na         1 IPK      -0.290600
     26 N3           5.8640    -0.3840     0.1920 nd         1 IPK      -0.595100
     27 C23          7.0550     0.2930     0.2190 ca         1 IPK       0.108400
     28 N4           9.1330     2.1260     0.2040 nb         1 IPK      -0.658000
     29 C24          7.8920     2.5660     0.0700 ca         1 IPK       0.350900
     30 C25          8.3650    -0.1550     0.3590 ca         1 IPK      -0.105000
     31 C26          9.3540     0.8130     0.3420 ca         1 IPK       0.307900
     32 HAB         -6.3230     5.7870     0.2810 ha         1 IPK       0.113000
     33 HAC         -7.5810     4.2170     1.7260 ha         1 IPK       0.112000
     34 HAD         -5.1190     4.9210    -1.7040 ha         1 IPK       0.112000
     35 HAF         -7.6360     1.8160     1.1930 ha         1 IPK       0.110000
     36 HAG         -5.1730     2.5180    -2.2330 ha         1 IPK       0.110000
     37 HAH          1.4680    -1.7070     2.2100 ha         1 IPK       0.122000
     38 HAI          1.6210    -2.1500    -2.0450 ha         1 IPK       0.122000
     39 HAJ         -0.9220    -2.2590     2.1850 ha         1 IPK       0.126000
     40 HAK         -0.7630    -2.7470    -2.0700 ha         1 IPK       0.126000
     41 HAN         -3.9210     1.1460     0.2940 hc         1 IPK       0.052450
     42 HANA        -3.7130     0.0090    -1.0310 hc         1 IPK       0.052450
     43 HAO         -5.4180    -1.9960    -1.2360 hc         1 IPK       0.052450
     44 HAOA        -6.6960    -2.1180    -0.0330 hc         1 IPK       0.052450
     45 HAP         -2.1400    -0.4800     0.7840 h1         1 IPK       0.057200
     46 HAPA        -3.4450    -0.5980     1.9520 h1         1 IPK       0.057200
     47 HAQ         -5.0510    -2.4940     1.7560 h1         1 IPK       0.057200
     48 HAQA        -4.8120    -3.6720     0.4720 h1         1 IPK       0.057200
     49 HAR          3.7010    -1.9700    -0.7340 h1         1 IPK       0.091200
     50 HARA         3.6420    -1.8080     1.0300 h1         1 IPK       0.091200
     51 HAS         -7.4390     0.1430    -0.7730 hc         1 IPK       0.049700
     52 HASA        -6.0940     0.3420    -1.8800 hc         1 IPK       0.049700
     53 HBE         -5.8650    -0.1200     1.1240 hc         1 IPK       0.048700
     54 H23          4.9600     2.6560    -0.1720 hn         1 IPK       0.370000
     55 H24          7.7390     3.6340    -0.0400 h4         1 IPK       0.022100
     56 H25          8.6080    -1.2030     0.4750 ha         1 IPK       0.137000
     57 H26         10.3910     0.5170     0.4470 h4         1 IPK       0.021100
     58 CAR          3.1610    -1.5190     0.0970 c3         1 IPK       0.120900
@<TRIPOS>BOND
     1     1    17 2   
     2     2     3 ar  
     3     2     4 ar  
     4     2    32 1   
     5     3     5 ar  
     6     3    33 1   
     7     4     6 ar  
     8     4    34 1   
     9     5    19 ar  
    10     5    35 1   
    11     6    19 ar  
    12     6    36 1   
    13     7     9 ar  
    14     7    18 ar  
    15     7    37 1   
    16     8    10 ar  
    17     8    18 ar  
    18     8    38 1   
    19     9    20 ar  
    20     9    39 1   
    21    10    20 ar  
    22    10    40 1   
    23    11    13 1   
    24    11    21 1   
    25    11    41 1   
    26    11    42 1   
    27    12    14 1   
    28    12    21 1   
    29    12    43 1   
    30    12    44 1   
    31    13    22 1   
    32    13    45 1   
    33    13    46 1   
    34    14    22 1   
    35    14    47 1   
    36    14    48 1   
    37    15    19 1   
    38    15    21 1   
    39    15    51 1   
    40    15    52 1   
    41    16    23 1   
    42    16    58 1   
    43    17    20 1   
    44    17    22 1   
    45    18    58 1   
    46    21    53 1   
    47    23    25 1   
    48    23    26 2   
    49    24    25 1   
    50    24    27 ar  
    51    24    29 ar  
    52    25    54 1   
    53    26    27 1   
    54    27    30 ar  
    55    28    29 ar  
    56    28    31 ar  
    57    29    55 1   
    58    30    31 ar  
    59    30    56 1   
    60    31    57 1   
    61    49    58 1   
    62    50    58 1   
@<TRIPOS>SUBSTRUCTURE
     1 IPK         1 TEMP              0 ****  ****    0 ROOT
