@<TRIPOS>MOLECULE
IPM
   22    21     1     0     0
SMALL
No Charge or Current Charge


@<TRIPOS>ATOM
      1 C1           0.6230     0.2890    -2.0460 c          1 IPM       0.713000
      2 C2           0.9630    -0.3540    -0.6330 c3         1 IPM       0.051300
      3 C3           0.1180     0.3050     0.5020 c3         1 IPM      -0.186700
      4 C4          -1.3820    -0.0250     0.2970 c          1 IPM       0.729000
      5 C5           0.5970    -0.0400     1.9570 c3         1 IPM      -0.038700
      6 C6           2.0720     0.3600     2.2200 c3         1 IPM      -0.072100
      7 C7          -0.3160     0.5940     3.0370 c3         1 IPM      -0.072100
      8 O1           0.7760    -1.7900    -0.5700 oh         1 IPM      -0.716000
      9 O2           1.3320     1.2020    -2.4490 o          1 IPM      -0.746500
     10 O3          -0.2580    -0.2120    -2.7370 o          1 IPM      -0.746500
     11 O4          -1.7230    -1.2020     0.3220 o          1 IPM      -0.753000
     12 O5          -2.1600     0.8970     0.1000 o          1 IPM      -0.753000
     13 H2           2.0230    -0.1310    -0.4550 h1         1 IPM      -0.006300
     14 H3           0.2280     1.3920     0.3950 hc         1 IPM       0.035700
     15 H5           0.5300    -1.1280     2.0880 hc         1 IPM       0.063700
     16 H61          2.3430     0.1710     3.2660 hc         1 IPM       0.004867
     17 H62          2.7620    -0.2220     1.6000 hc         1 IPM       0.004867
     18 H63          2.2310     1.4250     2.0150 hc         1 IPM       0.004867
     19 H71         -0.3350     1.6860     2.9400 hc         1 IPM       0.004867
     20 H72         -1.3440     0.2220     2.9610 hc         1 IPM       0.004867
     21 H73          0.0460     0.3480     4.0430 hc         1 IPM       0.004867
     22 HO1         -0.1860    -1.8890    -0.3350 ho         1 IPM       0.470000
@<TRIPOS>BOND
     1     1     2 1   
     2     1     9 1   
     3     1    10 1   
     4     2     3 1   
     5     2     8 1   
     6     2    13 1   
     7     3     4 1   
     8     3     5 1   
     9     3    14 1   
    10     4    11 1   
    11     4    12 1   
    12     5     6 1   
    13     5     7 1   
    14     5    15 1   
    15     6    16 1   
    16     6    17 1   
    17     6    18 1   
    18     7    19 1   
    19     7    20 1   
    20     7    21 1   
    21     8    22 1   
@<TRIPOS>SUBSTRUCTURE
     1 IPM         1 TEMP              0 ****  ****    0 ROOT
