@<TRIPOS>MOLECULE
IPM
   22    21     1     0     0
SMALL
abcg2


@<TRIPOS>ATOM
      1 C1           0.4730     0.1680    -1.9310 c          1 IPM       0.713000
      2 C2           0.9500    -0.2960    -0.5390 c3         1 IPM       0.051300
      3 C3           0.1030     0.3530     0.5730 c3         1 IPM      -0.186700
      4 C4          -1.3900     0.0520     0.3240 c          1 IPM       0.729000
      5 C5           0.5580    -0.0520     1.9820 c3         1 IPM      -0.038700
      6 C6           2.0410     0.2270     2.2200 c3         1 IPM      -0.072100
      7 C7          -0.2660     0.6810     3.0400 c3         1 IPM      -0.072100
      8 O1           0.9300    -1.7010    -0.4800 oh         1 IPM      -0.716000
      9 O2           0.7190     1.3370    -2.2700 o          1 IPM      -0.746500
     10 O3          -0.1190    -0.7070    -2.6050 o          1 IPM      -0.746500
     11 O4          -1.8370    -1.0360     0.7410 o          1 IPM      -0.753000
     12 O5          -2.0430     0.9140    -0.3020 o          1 IPM      -0.753000
     13 H2           1.9880     0.0390    -0.4160 h1         1 IPM      -0.006300
     14 H3           0.2560     1.4350     0.4730 hc         1 IPM       0.035700
     15 H5           0.3860    -1.1250     2.0970 hc         1 IPM       0.063700
     16 H61          2.3140     0.0140     3.2560 hc         1 IPM       0.004867
     17 H62          2.6910    -0.3770     1.5870 hc         1 IPM       0.004867
     18 H63          2.2780     1.2780     2.0300 hc         1 IPM       0.004867
     19 H71         -0.1380     1.7640     2.9500 hc         1 IPM       0.004867
     20 H72         -1.3290     0.4630     2.9500 hc         1 IPM       0.004867
     21 H73          0.0420     0.3980     4.0490 hc         1 IPM       0.004867
     22 HO1          0.3330    -1.9310    -1.2120 ho         1 IPM       0.470000
@<TRIPOS>BOND
     1     1     2 1   
     2     1     9 1   
     3     1    10 1   
     4     2     3 1   
     5     2     8 1   
     6     2    13 1   
     7     3     4 1   
     8     3     5 1   
     9     3    14 1   
    10     4    11 1   
    11     4    12 1   
    12     5     6 1   
    13     5     7 1   
    14     5    15 1   
    15     6    16 1   
    16     6    17 1   
    17     6    18 1   
    18     7    19 1   
    19     7    20 1   
    20     7    21 1   
    21     8    22 1   
@<TRIPOS>SUBSTRUCTURE
     1 IPM         1 TEMP              0 ****  ****    0 ROOT
