@<TRIPOS>MOLECULE
IPO
   25    25     1     0     0
SMALL
No Charge or Current Charge


@<TRIPOS>ATOM
      1 C1           0.0640    -0.6730    -1.1170 ca         1 IPO      -0.056300
      2 C2          -1.1350    -0.1830    -0.5580 ca         1 IPO      -0.099500
      3 C3          -1.2280     0.0530     0.8250 ca         1 IPO      -0.080500
      4 C4          -0.1250    -0.2020     1.6560 ca         1 IPO       0.198000
      5 I4          -0.2700     0.1620     3.7860 i          1 IPO      -0.319000
      6 C5           1.0700    -0.6930     1.1090 ca         1 IPO      -0.080500
      7 C6           1.1650    -0.9300    -0.2750 ca         1 IPO      -0.099500
      8 C7           0.1580    -0.9350    -2.6190 c3         1 IPO      -0.023100
      9 C8           0.2140     0.3580    -3.4770 c3         1 IPO       0.097500
     10 N2           1.4260     1.1810    -3.1290 n8         1 IPO      -0.985200
     11 C9           0.0720     0.0050    -5.0020 c          1 IPO       0.554100
     12 O3           0.9460    -0.5880    -5.6260 o          1 IPO      -0.573100
     13 N4          -1.1080     0.4330    -5.6060 ns         1 IPO      -0.387400
     14 O4          -1.2560     0.4150    -7.0470 oh         1 IPO      -0.420100
     15 H2          -1.9940     0.0150    -1.1950 ha         1 IPO       0.114500
     16 H3          -2.1520     0.4320     1.2540 ha         1 IPO       0.126500
     17 H5           1.9210    -0.8900     1.7560 ha         1 IPO       0.126500
     18 H6           2.0950    -1.3090    -0.6910 ha         1 IPO       0.114500
     19 H1'1        -0.7130    -1.5250    -2.9320 hc         1 IPO       0.060700
     20 H1'2         1.0330    -1.5560    -2.8460 hc         1 IPO       0.060700
     21 H4          -0.6670     0.9590    -3.2120 h1         1 IPO       0.064700
     22 HN21         2.2660     0.6940    -3.4660 hn         1 IPO       0.412000
     23 HN22         1.4240     2.0480    -3.6820 hn         1 IPO       0.412000
     24 HN4         -1.7360     1.0560    -5.0980 hn         1 IPO       0.337500
     25 HO4         -2.1220    -0.0370    -7.1870 ho         1 IPO       0.445000
@<TRIPOS>BOND
     1     1     2 ar  
     2     1     7 ar  
     3     1     8 1   
     4     2     3 ar  
     5     2    15 1   
     6     3     4 ar  
     7     3    16 1   
     8     4     5 1   
     9     4     6 ar  
    10     6     7 ar  
    11     6    17 1   
    12     7    18 1   
    13     8     9 1   
    14     8    19 1   
    15     8    20 1   
    16     9    10 1   
    17     9    11 1   
    18     9    21 1   
    19    10    22 1   
    20    10    23 1   
    21    11    12 2   
    22    11    13 1   
    23    13    14 1   
    24    13    24 1   
    25    14    25 1   
@<TRIPOS>SUBSTRUCTURE
     1 IPO         1 TEMP              0 ****  ****    0 ROOT
