@<TRIPOS>MOLECULE
IPO
   25    25     1     0     0
SMALL
bcc


@<TRIPOS>ATOM
      1 C1          -0.0260    -0.6680    -1.1830 ca         1 IPO      -0.056300
      2 C2          -1.2240    -0.3290    -0.5600 ca         1 IPO      -0.117500
      3 C3          -1.2840    -0.0800     0.8050 ca         1 IPO      -0.098500
      4 C4          -0.1220    -0.1760     1.5570 ca         1 IPO       0.060900
      5 I4          -0.1940     0.1870     3.6300 i          1 IPO      -0.181900
      6 C5           1.0850    -0.5160     0.9640 ca         1 IPO      -0.098500
      7 C6           1.1220    -0.7550    -0.4030 ca         1 IPO      -0.117500
      8 C7           0.0180    -0.9030    -2.6640 c3         1 IPO      -0.023100
      9 C8           0.2430     0.4000    -3.4450 c3         1 IPO       0.097500
     10 N2           1.5310     0.9690    -3.1190 n8         1 IPO      -0.874800
     11 C9           0.0950     0.0950    -4.9350 c          1 IPO       0.621100
     12 O3           0.9270    -0.5450    -5.5550 o          1 IPO      -0.573100
     13 N4          -1.0420     0.5650    -5.4700 ns         1 IPO      -0.454400
     14 O4          -1.2770     0.4580    -6.8070 oh         1 IPO      -0.381100
     15 H2          -2.1330    -0.2590    -1.1450 ha         1 IPO       0.132500
     16 H3          -2.2290     0.1800     1.2620 ha         1 IPO       0.144500
     17 H5           1.9930    -0.5960     1.5470 ha         1 IPO       0.144500
     18 H6           2.0650    -1.0250    -0.8620 ha         1 IPO       0.132500
     19 H1'1        -0.9190    -1.3590    -2.9930 hc         1 IPO       0.060700
     20 H1'2         0.8170    -1.6080    -2.9110 hc         1 IPO       0.060700
     21 H4          -0.5260     1.1160    -3.1390 h1         1 IPO       0.064700
     22 HN21         2.2700     0.3890    -3.5000 hn         1 IPO       0.356800
     23 HN22         1.6320     1.8790    -3.5500 hn         1 IPO       0.356800
     24 HN4         -1.6520     1.2010    -4.9780 hn         1 IPO       0.337500
     25 HO4         -1.8210    -0.3320    -6.9230 ho         1 IPO       0.406000
@<TRIPOS>BOND
     1     1     2 ar  
     2     1     7 ar  
     3     1     8 1   
     4     2     3 ar  
     5     2    15 1   
     6     3     4 ar  
     7     3    16 1   
     8     4     5 1   
     9     4     6 ar  
    10     6     7 ar  
    11     6    17 1   
    12     7    18 1   
    13     8     9 1   
    14     8    19 1   
    15     8    20 1   
    16     9    10 1   
    17     9    11 1   
    18     9    21 1   
    19    10    22 1   
    20    10    23 1   
    21    11    12 2   
    22    11    13 1   
    23    13    14 1   
    24    13    24 1   
    25    14    25 1   
@<TRIPOS>SUBSTRUCTURE
     1 IPO         1 TEMP              0 ****  ****    0 ROOT
