@<TRIPOS>MOLECULE
IPP
   25    25     1     0     0
SMALL
No Charge or Current Charge


@<TRIPOS>ATOM
      1 P           -0.3980    -0.3810    -4.9970 p5         1 IPP       1.236400
      2 O1P         -0.3180     0.1630    -6.3900 o          1 IPP      -0.813000
      3 O2P          0.0940    -1.7920    -4.8850 o          1 IPP      -0.813000
      4 C            0.4680     0.7490    -3.7920 c3         1 IPP      -0.266000
      5 N            0.3910     0.3920    -2.3450 ns         1 IPP      -0.460900
      6 C1           1.3270    -0.3620    -1.6550 c          1 IPP       0.602100
      7 O1           2.3480    -0.7860    -2.1800 o          1 IPP      -0.603100
      8 C2           0.9880    -0.6260    -0.1820 c3         1 IPP      -0.118100
      9 C7           0.4690    -2.0470     0.0060 ca         1 IPP      -0.046300
     10 C8          -0.9120    -2.3170    -0.0740 ca         1 IPP      -0.097000
     11 C3          -1.3880    -3.6290     0.0970 ca         1 IPP      -0.088500
     12 C4          -0.4870    -4.6750     0.3480 ca         1 IPP       0.196000
     13 I           -1.2220    -6.6960     0.6120 i          1 IPP      -0.362000
     14 C5           0.8900    -4.4150     0.4290 ca         1 IPP      -0.088500
     15 C6           1.3680    -3.1030     0.2580 ca         1 IPP      -0.097000
     16 H           -1.7250    -0.2770    -4.4970 hp         1 IPP      -0.221400
     17 H1           1.5170     0.7980    -4.1050 h1         1 IPP       0.060200
     18 H2           0.0210     1.7400    -3.9340 h1         1 IPP       0.060200
     19 HN          -0.4200     0.6900    -1.8120 hn         1 IPP       0.291500
     20 H21          1.8950    -0.4850     0.4180 hc         1 IPP       0.050700
     21 H22          0.2220     0.0830     0.1550 hc         1 IPP       0.050700
     22 H4          -1.6180    -1.5120    -0.2700 ha         1 IPP       0.142500
     23 H3          -2.4530    -3.8360     0.0350 ha         1 IPP       0.121000
     24 H5           1.5840    -5.2280     0.6230 ha         1 IPP       0.121000
     25 H6           2.4370    -2.9080     0.3190 ha         1 IPP       0.142500
@<TRIPOS>BOND
     1     1     2 1   
     2     1     3 1   
     3     1     4 1   
     4     1    16 1   
     5     4     5 1   
     6     4    17 1   
     7     4    18 1   
     8     5     6 1   
     9     5    19 1   
    10     6     7 2   
    11     6     8 1   
    12     8     9 1   
    13     8    20 1   
    14     8    21 1   
    15     9    10 ar  
    16     9    15 ar  
    17    10    11 ar  
    18    10    22 1   
    19    11    12 ar  
    20    11    23 1   
    21    12    13 1   
    22    12    14 ar  
    23    14    15 ar  
    24    14    24 1   
    25    15    25 1   
@<TRIPOS>SUBSTRUCTURE
     1 IPP         1 TEMP              0 ****  ****    0 ROOT
