@<TRIPOS>MOLECULE
IPP
   25    25     1     0     0
SMALL
bcc


@<TRIPOS>ATOM
      1 P           -0.9260     0.0500    -4.6220 p5         1 IPP       1.078600
      2 O1P         -0.7690     0.2100    -6.1170 o          1 IPP      -0.813000
      3 O2P         -1.1920    -1.3100    -4.0170 o          1 IPP      -0.813000
      4 C            0.5650     0.7990    -3.8190 c3         1 IPP      -0.108200
      5 N            0.6230     0.5260    -2.4050 ns         1 IPP      -0.527900
      6 C1           1.2410    -0.5450    -1.8900 c          1 IPP       0.669100
      7 O1           1.9780    -1.2790    -2.5330 o          1 IPP      -0.603100
      8 C2           0.9930    -0.7810    -0.4110 c3         1 IPP      -0.118100
      9 C7           0.5610    -2.1960    -0.1410 ca         1 IPP      -0.046300
     10 C8          -0.4710    -2.7720    -0.8790 ca         1 IPP      -0.115000
     11 C3          -0.9070    -4.0610    -0.6100 ca         1 IPP      -0.106500
     12 C4          -0.3030    -4.7830     0.4100 ca         1 IPP       0.058900
     13 I           -0.9590    -6.7400     0.8270 i          1 IPP      -0.224900
     14 C5           0.7290    -4.2360     1.1550 ca         1 IPP      -0.106500
     15 C6           1.1530    -2.9430     0.8710 ca         1 IPP      -0.115000
     16 H           -1.9360     0.9560    -4.1590 hp         1 IPP      -0.221400
     17 H1           1.4600     0.4060    -4.3030 h1         1 IPP       0.060200
     18 H2           0.5590     1.8800    -3.9800 h1         1 IPP       0.060200
     19 HN          -0.0120     1.0350    -1.8120 hn         1 IPP       0.291500
     20 H21          1.9200    -0.5650     0.1250 hc         1 IPP       0.050700
     21 H22          0.2410    -0.0900    -0.0200 hc         1 IPP       0.050700
     22 H4          -0.9350    -2.2200    -1.6900 ha         1 IPP       0.160500
     23 H3          -1.7090    -4.4880    -1.1980 ha         1 IPP       0.139000
     24 H5           1.2090    -4.7950     1.9460 ha         1 IPP       0.139000
     25 H6           1.9620    -2.5180     1.4530 ha         1 IPP       0.160500
@<TRIPOS>BOND
     1     1     2 1   
     2     1     3 1   
     3     1     4 1   
     4     1    16 1   
     5     4     5 1   
     6     4    17 1   
     7     4    18 1   
     8     5     6 1   
     9     5    19 1   
    10     6     7 2   
    11     6     8 1   
    12     8     9 1   
    13     8    20 1   
    14     8    21 1   
    15     9    10 ar  
    16     9    15 ar  
    17    10    11 ar  
    18    10    22 1   
    19    11    12 ar  
    20    11    23 1   
    21    12    13 1   
    22    12    14 ar  
    23    14    15 ar  
    24    14    24 1   
    25    15    25 1   
@<TRIPOS>SUBSTRUCTURE
     1 IPP         1 TEMP              0 ****  ****    0 ROOT
