@<TRIPOS>MOLECULE
IPQ
   30    32     1     0     0
SMALL
No Charge or Current Charge


@<TRIPOS>ATOM
      1 C6          37.4370     0.0280    -0.0920 ca         1 IPQ       0.480900
      2 C10         36.3810    -5.7220    -4.4750 ca         1 IPQ       0.174000
      3 C11         37.6750    -5.9860    -3.9920 ca         1 IPQ       0.144000
      4 C12         37.9760    -5.7820    -2.6350 ca         1 IPQ      -0.094000
      5 C1          38.1720    -2.0430    -0.6730 ca         1 IPQ       0.484300
      6 C8          37.1120    -2.5820     0.0750 ca         1 IPQ      -0.297200
      7 C4          36.2530    -1.7240     0.7230 ca         1 IPQ       0.219500
      8 C2          35.5910    -3.8460     1.1570 cc         1 IPQ       0.290700
      9 C7          36.9860    -5.3050    -1.7490 ca         1 IPQ      -0.139300
     10 C5          35.6870    -5.0470    -2.2410 ca         1 IPQ      -0.086000
     11 C9          35.3870    -5.2540    -3.6000 ca         1 IPQ      -0.121000
     12 F2          38.6370    -6.4390    -4.8290 f          1 IPQ      -0.139000
     13 N1          37.6050     1.3650    -0.1830 nv         1 IPQ      -1.021900
     14 N4          38.3360    -0.7140    -0.7570 nb         1 IPQ      -0.331000
     15 N3          36.3990    -0.3930     0.6510 nb         1 IPQ      -0.258000
     16 N9          35.3240    -2.4930     1.3860 na         1 IPQ      -0.377200
     17 N7          36.7130    -3.8900     0.3280 na         1 IPQ      -0.028600
     18 O6          39.0750    -2.8140    -1.3220 oh         1 IPQ      -0.617300
     19 H1          38.9820    -5.9890    -2.2780 ha         1 IPQ       0.145000
     20 HN22        35.0260    -4.6930     1.5250 h5         1 IPQ       0.115800
     21 H3          37.0100    -5.9660     0.2960 h1         1 IPQ       0.096700
     22 H4          38.4210    -5.0140    -0.1490 h1         1 IPQ       0.096700
     23 H5          34.9040    -4.6880    -1.5770 ha         1 IPQ       0.112000
     24 H6          34.3870    -5.0530    -3.9770 ha         1 IPQ       0.154000
     25 HN21        38.5040     1.7060    -0.5130 hn         1 IPQ       0.533000
     26 H2          37.1240     1.9550     0.4910 hn         1 IPQ       0.533000
     27 HN9         34.5610    -2.1340     1.9470 hn         1 IPQ       0.417000
     28 H9          39.6920    -2.1870    -1.7540 ho         1 IPQ       0.526000
     29 C3          37.3340    -5.0860    -0.2740 c3         1 IPQ       0.121900
     30 F1          36.0840    -5.9180    -5.7810 f          1 IPQ      -0.134000
@<TRIPOS>BOND
     1     1    13 1   
     2     1    14 ar  
     3     1    15 ar  
     4     2     3 ar  
     5     2    11 ar  
     6     2    30 1   
     7     3     4 ar  
     8     3    12 1   
     9     4     9 ar  
    10     4    19 1   
    11     5     6 ar  
    12     5    14 ar  
    13     5    18 1   
    14     6     7 ar  
    15     6    17 1   
    16     7    15 ar  
    17     7    16 1   
    18     8    16 2   
    19     8    17 1   
    20     8    20 1   
    21     9    10 ar  
    22     9    29 1   
    23    10    11 ar  
    24    10    23 1   
    25    11    24 1   
    26    13    25 1   
    27    13    26 1   
    28    16    27 1   
    29    17    29 1   
    30    18    28 1   
    31    21    29 1   
    32    22    29 1   
@<TRIPOS>SUBSTRUCTURE
     1 IPQ         1 TEMP              0 ****  ****    0 ROOT
