@<TRIPOS>MOLECULE
IPQ
   30    32     1     0     0
SMALL
abcg2


@<TRIPOS>ATOM
      1 C6          37.4770    -0.0120    -0.0960 ca         1 IPQ       0.480900
      2 C10         36.4100    -5.5790    -4.4100 ca         1 IPQ       0.174000
      3 C11         37.7000    -5.7070    -3.9270 ca         1 IPQ       0.144000
      4 C12         37.9630    -5.5730    -2.5800 ca         1 IPQ      -0.094000
      5 C1          38.2370    -2.0970    -0.7050 ca         1 IPQ       0.484300
      6 C8          37.1710    -2.6540     0.0140 ca         1 IPQ      -0.297200
      7 C4          36.3500    -1.7490     0.6670 ca         1 IPQ       0.219500
      8 C2          35.6610    -3.7930     1.1010 cc         1 IPQ       0.290700
      9 C7          36.9190    -5.3120    -1.7010 ca         1 IPQ      -0.139300
     10 C5          35.6240    -5.1910    -2.1900 ca         1 IPQ      -0.086000
     11 C9          35.3660    -5.3190    -3.5470 ca         1 IPQ      -0.121000
     12 F2          38.6960    -5.9540    -4.7830 f          1 IPQ      -0.139000
     13 N1          37.6590     1.3030    -0.2100 nv         1 IPQ      -1.021900
     14 N4          38.3610    -0.7980    -0.7510 nb         1 IPQ      -0.331000
     15 N3          36.4530    -0.4400     0.6490 nb         1 IPQ      -0.258000
     16 N9          35.4230    -2.5050     1.3380 na         1 IPQ      -0.377200
     17 N7          36.7060    -3.9240     0.3100 na         1 IPQ      -0.028600
     18 O6          39.1010    -2.8780    -1.3110 oh         1 IPQ      -0.617300
     19 H1          38.9810    -5.6710    -2.2260 ha         1 IPQ       0.145000
     20 HN22        35.0790    -4.6120     1.4930 h5         1 IPQ       0.115800
     21 H3          36.7060    -5.9820     0.3340 h1         1 IPQ       0.096700
     22 H4          38.2660    -5.2580    -0.0170 h1         1 IPQ       0.096700
     23 H5          34.7960    -4.9970    -1.5200 ha         1 IPQ       0.112000
     24 H6          34.3600    -5.2230    -3.9340 ha         1 IPQ       0.154000
     25 HN21        38.4270     1.6690    -0.7440 hn         1 IPQ       0.533000
     26 H2          37.0480     1.9450     0.2630 hn         1 IPQ       0.533000
     27 HN9         34.6720    -2.1550     1.9190 hn         1 IPQ       0.417000
     28 H9          39.7740    -2.3450    -1.7620 ho         1 IPQ       0.526000
     29 C3          37.2000    -5.1890    -0.2260 c3         1 IPQ       0.121900
     30 F1          36.1900    -5.7100    -5.7200 f          1 IPQ      -0.134000
@<TRIPOS>BOND
     1     1    13 1   
     2     1    14 ar  
     3     1    15 ar  
     4     2     3 ar  
     5     2    11 ar  
     6     2    30 1   
     7     3     4 ar  
     8     3    12 1   
     9     4     9 ar  
    10     4    19 1   
    11     5     6 ar  
    12     5    14 ar  
    13     5    18 1   
    14     6     7 ar  
    15     6    17 1   
    16     7    15 ar  
    17     7    16 1   
    18     8    16 2   
    19     8    17 1   
    20     8    20 1   
    21     9    10 ar  
    22     9    29 1   
    23    10    11 ar  
    24    10    23 1   
    25    11    24 1   
    26    13    25 1   
    27    13    26 1   
    28    16    27 1   
    29    17    29 1   
    30    18    28 1   
    31    21    29 1   
    32    22    29 1   
@<TRIPOS>SUBSTRUCTURE
     1 IPQ         1 TEMP              0 ****  ****    0 ROOT
