@<TRIPOS>MOLECULE
IPT
   33    33     1     0     0
SMALL
abcg2


@<TRIPOS>ATOM
      1 C1          41.7490    12.2080    35.5090 c6         1 IPT       0.318300
      2 C2          40.8520    11.2110    34.7720 c6         1 IPT       0.151300
      3 O2          39.6610    11.8860    34.4590 oh         1 IPT      -0.708000
      4 C3          40.5920    10.0160    35.6850 c6         1 IPT       0.133300
      5 O3          39.7910     9.1100    34.9670 oh         1 IPT      -0.648000
      6 C4          41.9020     9.4080    36.1790 c6         1 IPT       0.122300
      7 O4          42.5910     8.8500    35.0880 oh         1 IPT      -0.699000
      8 C5          42.6960    10.5190    36.8710 c6         1 IPT       0.132300
      9 O5          42.9130    11.6090    35.9950 os         1 IPT      -0.440000
     10 C6          44.0790    10.0920    37.3370 c3         1 IPT       0.158600
     11 O6          43.9360     8.9460    38.1420 oh         1 IPT      -0.731000
     12 S1          42.1860    13.6710    34.5280 ss         1 IPT      -0.399000
     13 C7          43.6180    13.2150    33.4710 c3         1 IPT       0.099300
     14 C8          43.4790    11.8960    32.7290 c3         1 IPT      -0.087100
     15 C9          44.9460    13.3270    34.2070 c3         1 IPT      -0.087100
     16 H1          41.1510    12.6300    36.3350 h2         1 IPT       0.069700
     17 H2          41.3550    10.8610    33.8650 h1         1 IPT       0.075700
     18 HO2         39.0610    11.2510    34.0550 ho         1 IPT       0.520000
     19 H3          40.0600    10.3860    36.5760 h1         1 IPT       0.040700
     20 HO3         39.4000     8.4830    35.5840 ho         1 IPT       0.448000
     21 H4          41.6640     8.6430    36.9310 h1         1 IPT       0.050700
     22 HO4         43.2660     8.2520    35.4230 ho         1 IPT       0.507000
     23 H5          42.1100    10.8500    37.7440 h1         1 IPT       0.051700
     24 H61         44.7120     9.9010    36.4600 h1         1 IPT       0.039700
     25 H62         44.5370    10.9230    37.8860 h1         1 IPT       0.039700
     26 HO6         44.8120     8.6520    38.4060 ho         1 IPT       0.513000
     27 H7          43.5740    14.0200    32.7320 h1         1 IPT       0.070700
     28 H2'1        44.3000    11.8000    32.0160 hc         1 IPT       0.043533
     29 H2'2        43.5320    11.0430    33.4040 hc         1 IPT       0.043533
     30 H2'3        42.5460    11.8410    32.1690 hc         1 IPT       0.043533
     31 H3'1        45.7680    13.2220    33.4960 hc         1 IPT       0.043533
     32 H3'2        45.0480    14.2970    34.6930 hc         1 IPT       0.043533
     33 H3'3        45.0550    12.5530    34.9640 hc         1 IPT       0.043533
@<TRIPOS>BOND
     1     1     2 1   
     2     1     9 1   
     3     1    12 1   
     4     1    16 1   
     5     2     3 1   
     6     2     4 1   
     7     2    17 1   
     8     3    18 1   
     9     4     5 1   
    10     4     6 1   
    11     4    19 1   
    12     5    20 1   
    13     6     7 1   
    14     6     8 1   
    15     6    21 1   
    16     7    22 1   
    17     8     9 1   
    18     8    10 1   
    19     8    23 1   
    20    10    11 1   
    21    10    24 1   
    22    10    25 1   
    23    11    26 1   
    24    12    13 1   
    25    13    14 1   
    26    13    15 1   
    27    13    27 1   
    28    14    28 1   
    29    14    29 1   
    30    14    30 1   
    31    15    31 1   
    32    15    32 1   
    33    15    33 1   
@<TRIPOS>SUBSTRUCTURE
     1 IPT         1 TEMP              0 ****  ****    0 ROOT
