@<TRIPOS>MOLECULE
IPT
   33    33     1     0     0
SMALL
No Charge or Current Charge


@<TRIPOS>ATOM
      1 C1          41.7470    12.2750    35.4900 c6         1 IPT       0.318300
      2 C2          40.7590    11.2760    34.7930 c6         1 IPT       0.151300
      3 O2          39.5120    11.9000    34.4080 oh         1 IPT      -0.708000
      4 C3          40.4640    10.0800    35.7520 c6         1 IPT       0.133300
      5 O3          39.6480     9.0990    35.0900 oh         1 IPT      -0.648000
      6 C4          41.7870     9.4190    36.2410 c6         1 IPT       0.122300
      7 O4          42.4280     8.7530    35.1280 oh         1 IPT      -0.699000
      8 C5          42.6880    10.5310    36.8820 c6         1 IPT       0.132300
      9 O5          42.9380    11.5920    35.9320 os         1 IPT      -0.440000
     10 C6          44.0760    10.0140    37.3730 c3         1 IPT       0.158600
     11 O6          43.9650     8.9350    38.3190 oh         1 IPT      -0.731000
     12 S1          42.2180    13.7660    34.4660 ss         1 IPT      -0.399000
     13 C7          43.6640    13.2330    33.4110 c3         1 IPT       0.099300
     14 C8          43.4600    11.8690    32.7190 c3         1 IPT      -0.087100
     15 C9          44.9920    13.3320    34.1920 c3         1 IPT      -0.087100
     16 H1          41.2320    12.6900    36.3690 h2         1 IPT       0.069700
     17 H2          41.2550    10.8710    33.9010 h1         1 IPT       0.075700
     18 HO2         38.8790    11.1520    34.2860 ho         1 IPT       0.520000
     19 H3          39.9320    10.4690    36.6330 h1         1 IPT       0.040700
     20 HO3         40.2980     8.4800    34.6820 ho         1 IPT       0.448000
     21 H4          41.5350     8.6860    37.0220 h1         1 IPT       0.050700
     22 HO4         43.1860     8.2460    35.4990 ho         1 IPT       0.507000
     23 H5          42.1660    10.9580    37.7510 h1         1 IPT       0.051700
     24 H61         44.6620     9.6970    36.5000 h1         1 IPT       0.039700
     25 H62         44.6070    10.8610    37.8290 h1         1 IPT       0.039700
     26 HO6         44.8770     8.7380    38.6430 ho         1 IPT       0.513000
     27 H7          43.7250    13.9810    32.6090 h1         1 IPT       0.070700
     28 H2'1        44.2550    11.6990    31.9830 hc         1 IPT       0.043533
     29 H2'2        43.4930    11.0430    33.4370 hc         1 IPT       0.043533
     30 H2'3        42.5020    11.8450    32.1880 hc         1 IPT       0.043533
     31 H3'1        45.8420    13.1770    33.5180 hc         1 IPT       0.043533
     32 H3'2        45.0970    14.3240    34.6460 hc         1 IPT       0.043533
     33 H3'3        45.0540    12.5810    34.9870 hc         1 IPT       0.043533
@<TRIPOS>BOND
     1     1     2 1   
     2     1     9 1   
     3     1    12 1   
     4     1    16 1   
     5     2     3 1   
     6     2     4 1   
     7     2    17 1   
     8     3    18 1   
     9     4     5 1   
    10     4     6 1   
    11     4    19 1   
    12     5    20 1   
    13     6     7 1   
    14     6     8 1   
    15     6    21 1   
    16     7    22 1   
    17     8     9 1   
    18     8    10 1   
    19     8    23 1   
    20    10    11 1   
    21    10    24 1   
    22    10    25 1   
    23    11    26 1   
    24    12    13 1   
    25    13    14 1   
    26    13    15 1   
    27    13    27 1   
    28    14    28 1   
    29    14    29 1   
    30    14    30 1   
    31    15    31 1   
    32    15    32 1   
    33    15    33 1   
@<TRIPOS>SUBSTRUCTURE
     1 IPT         1 TEMP              0 ****  ****    0 ROOT
