@<TRIPOS>MOLECULE
IPU
   17    16     1     0     0
SMALL
bcc


@<TRIPOS>ATOM
      1 C1          -0.5570     0.3110     2.5980 c3         1 IPU      -0.085100
      2 C2           0.3130     0.1960     1.3540 c3         1 IPU       0.053400
      3 C3           1.4450    -0.8020     1.5300 c3         1 IPU      -0.085100
      4 C            0.1530     0.1830    -1.4570 c2         1 IPU       0.666100
      5 S           -0.7850    -0.2840    -0.0230 ss         1 IPU      -0.306300
      6 N1           1.2410     0.8290    -1.3420 n2         1 IPU      -0.851100
      7 N2          -0.4280    -0.2730    -2.6030 nv         1 IPU      -0.953800
      8 H11         -1.0160    -0.6450     2.8570 hc         1 IPU       0.044867
      9 H12          0.0580     0.6210     3.4440 hc         1 IPU       0.044867
     10 H13         -1.3490     1.0480     2.4700 hc         1 IPU       0.044867
     11 H2           0.7190     1.1730     1.0920 h1         1 IPU       0.092700
     12 H31          1.0610    -1.7930     1.7750 hc         1 IPU       0.044867
     13 H32          2.0460    -0.8750     0.6250 hc         1 IPU       0.044867
     14 H33          2.1000    -0.4830     2.3430 hc         1 IPU       0.044867
     15 HN1          1.6560     1.0130    -2.2520 hn         1 IPU       0.380400
     16 HN21        -0.1520     0.1730    -3.4640 hn         1 IPU       0.410800
     17 HN22        -1.3970    -0.5490    -2.5850 hn         1 IPU       0.410800
@<TRIPOS>BOND
     1     1     2 1   
     2     1     8 1   
     3     1     9 1   
     4     1    10 1   
     5     2     3 1   
     6     2     5 1   
     7     2    11 1   
     8     3    12 1   
     9     3    13 1   
    10     3    14 1   
    11     4     5 1   
    12     4     6 2   
    13     4     7 1   
    14     6    15 1   
    15     7    16 1   
    16     7    17 1   
@<TRIPOS>SUBSTRUCTURE
     1 IPU         1 TEMP              0 ****  ****    0 ROOT
