@<TRIPOS>MOLECULE
IPU
   17    16     1     0     0
SMALL
No Charge or Current Charge


@<TRIPOS>ATOM
      1 C1          -0.5750     0.3260     2.6210 c3         1 IPU      -0.085100
      2 C2           0.3040     0.2030     1.3600 c3         1 IPU       0.101300
      3 C3           1.4440    -0.8210     1.5500 c3         1 IPU      -0.085100
      4 C            0.2090     0.1570    -1.4820 c2         1 IPU       0.666100
      5 S           -0.7640    -0.2880    -0.0700 ss         1 IPU      -0.354200
      6 N1           1.2580     0.8490    -1.4640 n2         1 IPU      -0.851100
      7 N2          -0.3460    -0.2750    -2.6220 nv         1 IPU      -1.064200
      8 H11         -1.0460    -0.6340     2.8640 hc         1 IPU       0.044867
      9 H12          0.0260     0.6440     3.4810 hc         1 IPU       0.044867
     10 H13         -1.3660     1.0690     2.4660 hc         1 IPU       0.044867
     11 H2           0.7390     1.1900     1.1510 h1         1 IPU       0.092700
     12 H31          1.0390    -1.8200     1.7530 hc         1 IPU       0.044867
     13 H32          2.0710    -0.8810     0.6530 hc         1 IPU       0.044867
     14 H33          2.0840    -0.5310     2.3910 hc         1 IPU       0.044867
     15 HN1          1.5960     0.9290    -2.4300 hn         1 IPU       0.380400
     16 HN21        -0.2970     0.3960    -3.3790 hn         1 IPU       0.466000
     17 HN22        -1.2670    -0.6720    -2.4820 hn         1 IPU       0.466000
@<TRIPOS>BOND
     1     1     2 1   
     2     1     8 1   
     3     1     9 1   
     4     1    10 1   
     5     2     3 1   
     6     2     5 1   
     7     2    11 1   
     8     3    12 1   
     9     3    13 1   
    10     3    14 1   
    11     4     5 1   
    12     4     6 2   
    13     4     7 1   
    14     6    15 1   
    15     7    16 1   
    16     7    17 1   
@<TRIPOS>SUBSTRUCTURE
     1 IPU         1 TEMP              0 ****  ****    0 ROOT
