@<TRIPOS>MOLECULE
IPV
   63    66     1     0     0
SMALL
No Charge or Current Charge


@<TRIPOS>ATOM
      1 C1           4.7330     0.5380    -1.3770 ca         1 IPV      -0.054300
      2 C2           5.1030     1.8940    -1.4810 ca         1 IPV      -0.114000
      3 C3           5.6030     2.5870    -0.3670 ca         1 IPV      -0.085000
      4 C7           5.5800    -2.4710     0.2860 c3         1 IPV       0.223100
      5 C8           3.1510    -1.9070    -0.0170 ca         1 IPV       0.428900
      6 C9           2.7880    -3.2550    -0.1760 ca         1 IPV      -0.329000
      7 C10          1.4220    -3.5620    -0.2160 ca         1 IPV       0.167900
      8 C11          0.9340    -1.3470     0.0540 ca         1 IPV       0.416900
      9 C12         -1.3790    -0.2450     0.2600 ca         1 IPV       0.350000
     10 C13         -2.0100     0.9200    -0.1970 ca         1 IPV      -0.204000
     11 C14         -3.4070     1.0580    -0.1250 ca         1 IPV       0.324000
     12 C15         -4.1720     0.0160     0.4290 ca         1 IPV      -0.109000
     13 C16         -3.5540    -1.1550     0.9150 ca         1 IPV      -0.198500
     14 C19         -5.1470     2.1290    -1.6180 c6         1 IPV       0.163800
     15 C20         -6.0710     3.3840    -1.6120 c6         1 IPV       0.147100
     16 C21         -4.3510     4.7490    -0.6280 c6         1 IPV       0.147100
     17 C22         -3.3500     3.5550    -0.5910 c6         1 IPV       0.163800
     18 O1          -3.6900    -3.2940     2.5180 o          1 IPV      -0.523500
     19 S           -4.5450    -2.4880     1.6360 sy         1 IPV       1.050500
     20 O           -5.8200    -1.9340     2.1100 o          1 IPV      -0.523500
     21 C18         -4.9300    -3.5180     0.2210 c3         1 IPV      -0.336100
     22 N4          -4.0500     2.2280    -0.5980 nh         1 IPV      -0.792400
     23 O2          -5.2910     4.5980    -1.7180 os         1 IPV      -0.444000
     24 C17         -2.1500    -1.2760     0.8270 ca         1 IPV      -0.098000
     25 N3           0.0140    -0.3170     0.1600 nu         1 IPV      -0.935900
     26 N1           0.4860    -2.6040    -0.1030 nb         1 IPV      -0.262000
     27 N2           2.2110    -0.9510     0.0990 nb         1 IPV      -0.317000
     28 C6           4.8640    -0.1260    -0.1290 ca         1 IPV       0.278000
     29 C            4.2170    -0.1860    -2.6200 c3         1 IPV      -0.045800
     30 C5           5.3740     0.5800     0.9780 ca         1 IPV      -0.072000
     31 C4           5.7430     1.9330     0.8700 ca         1 IPV      -0.088300
     32 C23          6.2840     2.6800     2.0810 c3         1 IPV       0.209900
     33 O3           7.6950     2.4690     2.2030 oh         1 IPV      -0.655000
     34 H1           5.0060     2.4140    -2.4310 ha         1 IPV       0.115000
     35 H2           5.8860     3.6330    -0.4670 ha         1 IPV       0.114000
     36 H3           5.7200    -3.1260    -0.5840 h1         1 IPV       0.045033
     37 H4           6.5340    -1.9620     0.4800 h1         1 IPV       0.045033
     38 H5           5.3480    -3.0830     1.1680 h1         1 IPV       0.045033
     39 H6           3.5250    -4.0440    -0.2780 ha         1 IPV       0.135000
     40 H7           1.0710    -4.5860    -0.3430 h4         1 IPV       0.023100
     41 H8          -1.4100     1.7110    -0.6330 ha         1 IPV       0.113000
     42 H9          -5.2510     0.1300     0.4970 ha         1 IPV       0.140000
     43 H10         -5.7700     1.2420    -1.4390 h1         1 IPV       0.048700
     44 H11         -4.7100     2.0180    -2.6210 h1         1 IPV       0.048700
     45 H12         -6.7740     3.3320    -2.4550 h1         1 IPV       0.055450
     46 H13         -6.6570     3.4100    -0.6820 h1         1 IPV       0.055450
     47 H14         -4.9040     4.8000     0.3210 h1         1 IPV       0.055450
     48 H15         -3.8020     5.6920    -0.7520 h1         1 IPV       0.055450
     49 H16         -2.6800     3.6310    -1.4600 h1         1 IPV       0.048700
     50 H17         -2.7300     3.6530     0.3120 h1         1 IPV       0.048700
     51 H18         -5.5360    -4.3620     0.5670 h1         1 IPV       0.101700
     52 H19         -5.4870    -2.9120    -0.5020 h1         1 IPV       0.101700
     53 H20         -3.9880    -3.8690    -0.2140 h1         1 IPV       0.101700
     54 H21         -1.6610    -2.1630     1.2160 ha         1 IPV       0.176000
     55 H22          0.4600     0.5930     0.0580 hn         1 IPV       0.508000
     56 H23          4.6520    -1.1880    -2.7100 hc         1 IPV       0.045367
     57 H24          3.1260    -0.2940    -2.5870 hc         1 IPV       0.045367
     58 H25          4.4670     0.3590    -3.5380 hc         1 IPV       0.045367
     59 H26          5.4750     0.0690     1.9310 ha         1 IPV       0.124000
     60 H27          6.0670     3.7520     1.9760 h1         1 IPV       0.026200
     61 H28          5.7670     2.3280     2.9840 h1         1 IPV       0.026200
     62 H29          7.9880     2.9750     2.9930 ho         1 IPV       0.442000
     63 N            4.5010    -1.4880     0.0340 nh         1 IPV      -0.817100
@<TRIPOS>BOND
     1     1     2 ar  
     2     1    28 ar  
     3     1    29 1   
     4     2     3 ar  
     5     2    34 1   
     6     3    31 ar  
     7     3    35 1   
     8     4    36 1   
     9     4    37 1   
    10     4    38 1   
    11     4    63 1   
    12     5     6 ar  
    13     5    27 ar  
    14     5    63 1   
    15     6     7 ar  
    16     6    39 1   
    17     7    26 ar  
    18     7    40 1   
    19     8    25 1   
    20     8    26 ar  
    21     8    27 ar  
    22     9    10 ar  
    23     9    24 ar  
    24     9    25 1   
    25    10    11 ar  
    26    10    41 1   
    27    11    12 ar  
    28    11    22 1   
    29    12    13 ar  
    30    12    42 1   
    31    13    19 1   
    32    13    24 ar  
    33    14    15 1   
    34    14    22 1   
    35    14    43 1   
    36    14    44 1   
    37    15    23 1   
    38    15    45 1   
    39    15    46 1   
    40    16    17 1   
    41    16    23 1   
    42    16    47 1   
    43    16    48 1   
    44    17    22 1   
    45    17    49 1   
    46    17    50 1   
    47    18    19 2   
    48    19    20 2   
    49    19    21 1   
    50    21    51 1   
    51    21    52 1   
    52    21    53 1   
    53    24    54 1   
    54    25    55 1   
    55    28    30 ar  
    56    28    63 1   
    57    29    56 1   
    58    29    57 1   
    59    29    58 1   
    60    30    31 ar  
    61    30    59 1   
    62    31    32 1   
    63    32    33 1   
    64    32    60 1   
    65    32    61 1   
    66    33    62 1   
@<TRIPOS>SUBSTRUCTURE
     1 IPV         1 TEMP              0 ****  ****    0 ROOT
