@<TRIPOS>MOLECULE
IPV
   63    66     1     0     0
SMALL
abcg2


@<TRIPOS>ATOM
      1 C1           4.8610     0.3090    -1.5360 ca         1 IPV      -0.054300
      2 C2           5.2050     1.6400    -1.7450 ca         1 IPV      -0.114000
      3 C3           5.4100     2.5090    -0.6820 ca         1 IPV      -0.085000
      4 C7           5.5240    -2.4350     0.1690 c3         1 IPV       0.223100
      5 C8           3.1480    -1.8910     0.2080 ca         1 IPV       0.428900
      6 C9           2.8150    -3.2270     0.5260 ca         1 IPV      -0.329000
      7 C10          1.4780    -3.4940     0.6650 ca         1 IPV       0.167900
      8 C11          0.9340    -1.3650     0.2170 ca         1 IPV       0.416900
      9 C12         -1.3520    -0.3290     0.1460 ca         1 IPV       0.350000
     10 C13         -1.9710     0.8880    -0.1680 ca         1 IPV      -0.204000
     11 C14         -3.3500     1.0750    -0.0720 ca         1 IPV       0.324000
     12 C15         -4.1350    -0.0250     0.3190 ca         1 IPV      -0.109000
     13 C16         -3.5060    -1.2180     0.6000 ca         1 IPV      -0.198500
     14 C19         -5.2040     2.3410    -1.0350 c6         1 IPV       0.163800
     15 C20         -5.8870     3.6810    -0.8380 c6         1 IPV       0.147100
     16 C21         -3.8640     4.7320    -0.4570 c6         1 IPV       0.147100
     17 C22         -3.0930     3.4360    -0.6310 c6         1 IPV       0.163800
     18 O1          -3.7270    -3.4830     1.9330 o          1 IPV      -0.523500
     19 S           -4.5100    -2.6150     1.0550 sy         1 IPV       1.050500
     20 O           -5.8070    -2.1330     1.5280 o          1 IPV      -0.523500
     21 C18         -4.7620    -3.4630    -0.4870 c3         1 IPV      -0.336100
     22 N4          -3.9410     2.3040    -0.3090 nh         1 IPV      -0.792400
     23 O2          -5.0510     4.7500    -1.2140 os         1 IPV      -0.444000
     24 C17         -2.1340    -1.4140     0.5370 ca         1 IPV      -0.098000
     25 N3           0.0270    -0.3540     0.0390 nu         1 IPV      -0.935900
     26 N1           0.5120    -2.5850     0.5180 nb         1 IPV      -0.262000
     27 N2           2.1950    -0.9770     0.0550 nb         1 IPV      -0.317000
     28 C6           4.7330    -0.1280    -0.2150 ca         1 IPV       0.278000
     29 C            4.6260    -0.6250    -2.6840 c3         1 IPV      -0.045800
     30 C5           4.9330     0.7390     0.8460 ca         1 IPV      -0.072000
     31 C4           5.2700     2.0720     0.6290 ca         1 IPV      -0.088300
     32 C23          5.5180     2.9900     1.7900 c3         1 IPV       0.209900
     33 O3           6.8000     2.7050     2.3150 oh         1 IPV      -0.655000
     34 H1           5.3150     2.0040    -2.7600 ha         1 IPV       0.115000
     35 H2           5.6760     3.5400    -0.8800 ha         1 IPV       0.114000
     36 H3           5.4060    -3.2770    -0.5150 h1         1 IPV       0.045033
     37 H4           6.4510    -1.9280    -0.0830 h1         1 IPV       0.045033
     38 H5           5.6170    -2.8220     1.1850 h1         1 IPV       0.045033
     39 H6           3.5510    -4.0030     0.6600 ha         1 IPV       0.135000
     40 H7           1.1520    -4.4980     0.9120 h4         1 IPV       0.023100
     41 H8          -1.3370     1.6990    -0.5030 ha         1 IPV       0.113000
     42 H9          -5.2050     0.0640     0.4320 ha         1 IPV       0.140000
     43 H10         -5.8800     1.5680    -0.6770 h1         1 IPV       0.048700
     44 H11         -5.0380     2.1600    -2.1060 h1         1 IPV       0.048700
     45 H12         -6.7820     3.7260    -1.4590 h1         1 IPV       0.055450
     46 H13         -6.1960     3.7820     0.2120 h1         1 IPV       0.055450
     47 H14         -4.0870     4.8760     0.6100 h1         1 IPV       0.055450
     48 H15         -3.2470     5.5680    -0.7870 h1         1 IPV       0.055450
     49 H16         -2.6940     3.3670    -1.6530 h1         1 IPV       0.048700
     50 H17         -2.2430     3.4690     0.0530 h1         1 IPV       0.048700
     51 H18         -5.3750    -4.3400    -0.2780 h1         1 IPV       0.101700
     52 H19         -5.2780    -2.8040    -1.1820 h1         1 IPV       0.101700
     53 H20         -3.8010    -3.7680    -0.8960 h1         1 IPV       0.101700
     54 H21         -1.6820    -2.3600     0.7830 ha         1 IPV       0.176000
     55 H22          0.4610     0.5230    -0.2020 hn         1 IPV       0.508000
     56 H23          5.3260    -1.4620    -2.6770 hc         1 IPV       0.045367
     57 H24          3.6210    -1.0490    -2.6510 hc         1 IPV       0.045367
     58 H25          4.7390    -0.1090    -3.6360 hc         1 IPV       0.045367
     59 H26          4.8150     0.3670     1.8580 ha         1 IPV       0.124000
     60 H27          5.4420     4.0310     1.4540 h1         1 IPV       0.026200
     61 H28          4.7380     2.8400     2.5460 h1         1 IPV       0.026200
     62 H29          6.9320     3.2670     3.0850 ho         1 IPV       0.442000
     63 N            4.4280    -1.4930     0.0480 nh         1 IPV      -0.817100
@<TRIPOS>BOND
     1     1     2 ar  
     2     1    28 ar  
     3     1    29 1   
     4     2     3 ar  
     5     2    34 1   
     6     3    31 ar  
     7     3    35 1   
     8     4    36 1   
     9     4    37 1   
    10     4    38 1   
    11     4    63 1   
    12     5     6 ar  
    13     5    27 ar  
    14     5    63 1   
    15     6     7 ar  
    16     6    39 1   
    17     7    26 ar  
    18     7    40 1   
    19     8    25 1   
    20     8    26 ar  
    21     8    27 ar  
    22     9    10 ar  
    23     9    24 ar  
    24     9    25 1   
    25    10    11 ar  
    26    10    41 1   
    27    11    12 ar  
    28    11    22 1   
    29    12    13 ar  
    30    12    42 1   
    31    13    19 1   
    32    13    24 ar  
    33    14    15 1   
    34    14    22 1   
    35    14    43 1   
    36    14    44 1   
    37    15    23 1   
    38    15    45 1   
    39    15    46 1   
    40    16    17 1   
    41    16    23 1   
    42    16    47 1   
    43    16    48 1   
    44    17    22 1   
    45    17    49 1   
    46    17    50 1   
    47    18    19 2   
    48    19    20 2   
    49    19    21 1   
    50    21    51 1   
    51    21    52 1   
    52    21    53 1   
    53    24    54 1   
    54    25    55 1   
    55    28    30 ar  
    56    28    63 1   
    57    29    56 1   
    58    29    57 1   
    59    29    58 1   
    60    30    31 ar  
    61    30    59 1   
    62    31    32 1   
    63    32    33 1   
    64    32    60 1   
    65    32    61 1   
    66    33    62 1   
@<TRIPOS>SUBSTRUCTURE
     1 IPV         1 TEMP              0 ****  ****    0 ROOT
