@<TRIPOS>MOLECULE
IPW
   49    53     1     0     0
SMALL
bcc


@<TRIPOS>ATOM
      1 C1           6.5210    -0.1410    -0.7410 ca         1 IPW      -0.133000
      2 C2           7.1910     0.7330     0.0980 ca         1 IPW       0.042400
      3 C3           6.5020     1.5530     0.9820 ca         1 IPW      -0.133000
      4 C7           2.2540    -0.7160     0.2170 cc         1 IPW      -0.238400
      5 C8           2.8070    -1.9720     0.3800 cd         1 IPW      -0.039100
      6 C9           0.6310    -2.3130     0.1080 ca         1 IPW       0.410800
      7 C10          0.8410    -0.9230     0.0500 ca         1 IPW      -0.151100
      8 C11         -0.2790    -0.1230    -0.1440 ca         1 IPW      -0.039000
      9 C12         -1.5150    -0.7480    -0.2840 ca         1 IPW      -0.118300
     10 C13         -1.5700    -2.1520    -0.2160 ca         1 IPW       0.420200
     11 C14         -2.7350     0.0250    -0.4990 cc         1 IPW      -0.222300
     12 C15         -2.8620     1.3270    -1.0220 cc         1 IPW       0.321200
     13 C16         -4.0410    -0.3500    -0.2440 cd         1 IPW      -0.127300
     14 C19         -8.5080    -0.2650    -0.7380 c6         1 IPW       0.151300
     15 C20         -8.1700     1.2510     1.0980 c6         1 IPW       0.151300
     16 C21         -6.6510     1.1290     0.9800 c6         1 IPW      -0.131400
     17 CL           8.9190     0.8030     0.0390 cl         1 IPW      -0.106400
     18 C4           5.1210     1.4840     1.0250 ca         1 IPW      -0.085000
     19 C5           4.4250     0.5870     0.2150 ca         1 IPW      -0.159600
     20 C            5.1380    -0.2130    -0.6740 ca         1 IPW      -0.085000
     21 C6           2.9350     0.5620     0.2820 c          1 IPW       0.622900
     22 O            2.3160     1.6070     0.4080 o          1 IPW      -0.529100
     23 N1          -0.5240    -2.9370    -0.0180 nb         1 IPW      -0.674000
     24 N            1.8450    -2.9120     0.3160 na         1 IPW      -0.261100
     25 N3          -4.8260     0.6750    -0.6140 na         1 IPW       0.116400
     26 N2          -4.1250     1.7030    -1.0820 nd         1 IPW      -0.523800
     27 C17         -6.2680     0.7930    -0.4590 c6         1 IPW       0.064000
     28 N4          -8.8930     0.0870     0.6170 n7         1 IPW      -0.791200
     29 C18         -7.0020    -0.4560    -0.9300 c6         1 IPW      -0.131400
     30 H1           7.0650    -0.7600    -1.4420 ha         1 IPW       0.150000
     31 H2           7.0370     2.2360     1.6280 ha         1 IPW       0.150000
     32 H3           3.8300    -2.2540     0.5680 h4         1 IPW       0.174000
     33 H4          -0.1960     0.9550    -0.1770 ha         1 IPW       0.162000
     34 H5          -2.5220    -2.6560    -0.3430 h4         1 IPW       0.017100
     35 H6          -2.0820     1.9860    -1.3720 h4         1 IPW       0.043100
     36 H7          -4.4440    -1.2560     0.1770 h4         1 IPW       0.171000
     37 H9          -8.8530     0.5310    -1.4080 h1         1 IPW       0.058950
     38 H10         -8.4470     1.4350     2.1380 h1         1 IPW       0.058950
     39 H11         -8.5060     2.1230     0.5260 h1         1 IPW       0.058950
     40 H12         -6.1690     2.0610     1.2870 hc         1 IPW       0.056950
     41 H13         -6.2910     0.3400     1.6490 hc         1 IPW       0.056950
     42 H14          4.5820     2.1240     1.7120 ha         1 IPW       0.146000
     43 H15          4.6190    -0.8830    -1.3480 ha         1 IPW       0.146000
     44 H16          1.9970    -3.9050     0.4100 hn         1 IPW       0.314700
     45 H17         -6.5510     1.6290    -1.1040 h1         1 IPW       0.090700
     46 H18         -8.7070    -0.6970     1.2310 hn         1 IPW       0.351800
     47 H20         -6.6770    -1.3320    -0.3590 hc         1 IPW       0.056950
     48 H21         -6.7780    -0.6540    -1.9810 hc         1 IPW       0.056950
     49 H8          -9.0370    -1.1720    -1.0340 h1         1 IPW       0.058950
@<TRIPOS>BOND
     1     1     2 ar  
     2     1    20 ar  
     3     1    30 1   
     4     2     3 ar  
     5     2    17 1   
     6     3    18 ar  
     7     3    31 1   
     8     4     5 2   
     9     4     7 1   
    10     4    21 1   
    11     5    24 1   
    12     5    32 1   
    13     6     7 ar  
    14     6    23 ar  
    15     6    24 1   
    16     7     8 ar  
    17     8     9 ar  
    18     8    33 1   
    19     9    10 ar  
    20     9    11 1   
    21    10    23 ar  
    22    10    34 1   
    23    11    12 1   
    24    11    13 2   
    25    12    26 2   
    26    12    35 1   
    27    13    25 1   
    28    13    36 1   
    29    14    28 1   
    30    14    29 1   
    31    14    37 1   
    32    14    49 1   
    33    15    16 1   
    34    15    28 1   
    35    15    38 1   
    36    15    39 1   
    37    16    27 1   
    38    16    40 1   
    39    16    41 1   
    40    18    19 ar  
    41    18    42 1   
    42    19    20 ar  
    43    19    21 1   
    44    20    43 1   
    45    21    22 2   
    46    24    44 1   
    47    25    26 1   
    48    25    27 1   
    49    27    29 1   
    50    27    45 1   
    51    28    46 1   
    52    29    47 1   
    53    29    48 1   
@<TRIPOS>SUBSTRUCTURE
     1 IPW         1 TEMP              0 ****  ****    0 ROOT
