@<TRIPOS>MOLECULE
IPW
   49    53     1     0     0
SMALL
No Charge or Current Charge


@<TRIPOS>ATOM
      1 C1           6.3910    -0.4250    -1.0880 ca         1 IPW      -0.115000
      2 C2           7.2020     0.5990    -0.5780 ca         1 IPW       0.134000
      3 C3           6.6370     1.6180     0.2040 ca         1 IPW      -0.115000
      4 C7           2.2430    -0.7120     0.4340 cc         1 IPW      -0.238400
      5 C8           2.8320    -1.9230     0.7840 cd         1 IPW      -0.089100
      6 C9           0.6010    -2.2720     0.7460 ca         1 IPW       0.345500
      7 C10          0.8200    -0.9470     0.4430 ca         1 IPW      -0.085800
      8 C11         -0.2460    -0.0720     0.1850 ca         1 IPW      -0.021000
      9 C12         -1.5500    -0.6050     0.2590 ca         1 IPW      -0.053000
     10 C13         -1.6820    -1.9820     0.5840 ca         1 IPW       0.354900
     11 C14         -2.7140     0.2550     0.0030 cc         1 IPW      -0.157000
     12 C15         -2.7830     1.6200    -0.3280 cc         1 IPW       0.255900
     13 C16         -3.9990    -0.1980     0.0570 cd         1 IPW      -0.160000
     14 C19         -8.3350     0.0250    -1.4550 c6         1 IPW       0.151300
     15 C20         -8.4370     0.6050     0.9490 c6         1 IPW       0.151300
     16 C21         -6.8950     0.6020     1.0510 c6         1 IPW      -0.131400
     17 Cl           8.9240     0.6160    -0.9320 cl         1 IPW      -0.198000
     18 C4           5.2590     1.6070     0.4850 ca         1 IPW      -0.067000
     19 C5           4.4340     0.5670    -0.0010 ca         1 IPW      -0.159600
     20 C            5.0130    -0.4400    -0.8090 ca         1 IPW      -0.067000
     21 C6           2.9510     0.5950     0.3030 c          1 IPW       0.622900
     22 O            2.3550     1.6640     0.3580 o          1 IPW      -0.529100
     23 N1          -0.6290    -2.8090     0.8240 nb         1 IPW      -0.674000
     24 N            1.8150    -2.8950     0.9450 na         1 IPW      -0.311400
     25 N3          -4.7730     0.9300    -0.2480 na         1 IPW       0.137800
     26 N2          -4.0110     2.0670    -0.4890 nd         1 IPW      -0.523800
     27 C17         -6.2550     0.9560    -0.3170 c6         1 IPW       0.093300
     28 N4          -8.8940    -0.3140    -0.1230 n7         1 IPW      -0.846400
     29 C18         -6.7900     0.0050    -1.4210 c6         1 IPW      -0.131400
     30 H1           6.8280    -1.2030    -1.7090 ha         1 IPW       0.132000
     31 H2           7.2650     2.4160     0.5900 ha         1 IPW       0.132000
     32 H3           3.8800    -2.1610     0.9630 h4         1 IPW       0.224000
     33 H4          -0.0720     0.9700    -0.0650 ha         1 IPW       0.144000
     34 H5          -2.6620    -2.4500     0.6560 h4         1 IPW       0.017100
     35 H6          -1.9590     2.3090    -0.4590 h4         1 IPW       0.043100
     36 H7          -4.4260    -1.1700     0.2720 h4         1 IPW       0.153000
     37 H9          -8.6840     1.0230    -1.7600 h1         1 IPW       0.058950
     38 H10         -8.8730     0.2990     1.9120 h1         1 IPW       0.058950
     39 H11         -8.7900     1.6260     0.7370 h1         1 IPW       0.058950
     40 H12         -6.5740     1.3240     1.8140 hc         1 IPW       0.056950
     41 H13         -6.5520    -0.3860     1.3900 hc         1 IPW       0.056950
     42 H14          4.8340     2.4050     1.0910 ha         1 IPW       0.128000
     43 H15          4.3980    -1.2240    -1.2450 ha         1 IPW       0.128000
     44 H16          1.9370    -3.8670     1.2020 hn         1 IPW       0.365000
     45 H17         -6.5560     1.9810    -0.5770 h1         1 IPW       0.090700
     46 H18         -8.5990    -1.2680     0.1200 hn         1 IPW       0.407000
     47 H20         -6.4410    -1.0210    -1.2440 hc         1 IPW       0.056950
     48 H21         -6.3950     0.3070    -2.4000 hc         1 IPW       0.056950
     49 H8          -8.6980    -0.6940    -2.2050 h1         1 IPW       0.058950
@<TRIPOS>BOND
     1     1     2 ar  
     2     1    20 ar  
     3     1    30 1   
     4     2     3 ar  
     5     2    17 1   
     6     3    18 ar  
     7     3    31 1   
     8     4     5 2   
     9     4     7 1   
    10     4    21 1   
    11     5    24 1   
    12     5    32 1   
    13     6     7 ar  
    14     6    23 ar  
    15     6    24 1   
    16     7     8 ar  
    17     8     9 ar  
    18     8    33 1   
    19     9    10 ar  
    20     9    11 1   
    21    10    23 ar  
    22    10    34 1   
    23    11    12 1   
    24    11    13 2   
    25    12    26 2   
    26    12    35 1   
    27    13    25 1   
    28    13    36 1   
    29    14    28 1   
    30    14    29 1   
    31    14    37 1   
    32    14    49 1   
    33    15    16 1   
    34    15    28 1   
    35    15    38 1   
    36    15    39 1   
    37    16    27 1   
    38    16    40 1   
    39    16    41 1   
    40    18    19 ar  
    41    18    42 1   
    42    19    20 ar  
    43    19    21 1   
    44    20    43 1   
    45    21    22 2   
    46    24    44 1   
    47    25    26 1   
    48    25    27 1   
    49    27    29 1   
    50    27    45 1   
    51    28    46 1   
    52    29    47 1   
    53    29    48 1   
@<TRIPOS>SUBSTRUCTURE
     1 IPW         1 TEMP              0 ****  ****    0 ROOT
