@<TRIPOS>MOLECULE
IPX
   48    51     1     0     0
SMALL
No Charge or Current Charge


@<TRIPOS>ATOM
      1 C1           1.0730    -0.1110     1.5500 c5         1 IPX       0.110700
      2 C2          -4.8880    -0.3640     0.2540 ca         1 IPX      -0.095800
      3 C3          -4.2040     0.0070    -0.8690 ca         1 IPX      -0.054200
      4 C4          -6.2810    -0.4980     0.2750 ca         1 IPX      -0.094000
      5 C5          -4.8650     0.2760    -2.0750 ca         1 IPX      -0.103000
      6 C6          -6.9730    -0.2330    -0.9260 ca         1 IPX       0.129000
      7 C7          -6.2730     0.1510    -2.0950 ca         1 IPX      -0.127000
      8 N8          -2.8460     0.0550    -0.5870 na         1 IPX      -0.209700
      9 C9          -2.6170    -0.2950     0.7700 cc         1 IPX      -0.127300
     10 C10         -3.8890    -0.5500     1.2730 cd         1 IPX      -0.171200
     11 C12         -1.3680    -0.3990     1.5730 c          1 IPX       0.627300
     12 O13         -1.3480    -0.7190     2.7560 o          1 IPX      -0.598100
     13 N14         -0.2270    -0.0970     0.8560 ns         1 IPX      -0.494900
     14 C15          1.2790     1.3790     2.0350 c5         1 IPX      -0.048100
     15 C16          1.7760     2.0160     0.7610 ca         1 IPX      -0.093300
     16 C17          2.2320     1.0780    -0.1480 ca         1 IPX      -0.086300
     17 C18          2.1280    -0.3360     0.3890 c5         1 IPX      -0.031400
     18 C19          1.7890     3.3860     0.4550 ca         1 IPX      -0.104000
     19 C20          2.2690     3.7990    -0.8030 ca         1 IPX      -0.119000
     20 C21          2.7230     2.8430    -1.7360 ca         1 IPX      -0.114000
     21 C22          2.7030     1.4720    -1.4120 ca         1 IPX      -0.079000
     22 C23          3.4780    -0.8930     0.9150 c3         1 IPX      -0.069400
     23 C24          4.5530    -1.1410    -0.1700 c3         1 IPX      -0.055400
     24 C25          5.8410    -1.7930     0.3890 c3         1 IPX      -0.205400
     25 C26          6.8650    -2.0030    -0.7420 c          1 IPX       0.718000
     26 O27          6.8200    -3.0480    -1.3730 o          1 IPX      -0.741500
     27 O28          7.6460    -1.0970    -0.9890 o          1 IPX      -0.741500
     28 H1           1.1380    -0.8580     2.3540 h1         1 IPX       0.083700
     29 H5          -4.3160     0.5700    -2.9670 ha         1 IPX       0.119000
     30 H7          -6.8230     0.3510    -3.0110 ha         1 IPX       0.126000
     31 HN8         -2.1330     0.3060    -1.2630 hn         1 IPX       0.352000
     32 H10         -4.0940    -0.8500     2.2990 ha         1 IPX       0.224000
     33 HN14        -0.3370     0.1790    -0.1090 hn         1 IPX       0.309500
     34 H15          0.3630     1.8380     2.4250 hc         1 IPX       0.063700
     35 H15A         2.0360     1.4360     2.8250 hc         1 IPX       0.063700
     36 H18          1.7590    -1.0450    -0.3630 hc         1 IPX       0.058700
     37 H19          1.4290     4.1170     1.1760 ha         1 IPX       0.106000
     38 H20          2.2860     4.8560    -1.0570 ha         1 IPX       0.102000
     39 H21          3.0870     3.1650    -2.7090 ha         1 IPX       0.110000
     40 H22          3.0460     0.7320    -2.1310 ha         1 IPX       0.130000
     41 H23          3.8900    -0.2100     1.6680 hc         1 IPX       0.034700
     42 H23A         3.2890    -1.8410     1.4330 hc         1 IPX       0.034700
     43 H24          4.1330    -1.7830    -0.9540 hc         1 IPX       0.041200
     44 H24A         4.8180    -0.1880    -0.6430 hc         1 IPX       0.041200
     45 H25          6.2340    -1.0920     1.1360 hc         1 IPX       0.016200
     46 H25A         5.5320    -2.7590     0.8090 hc         1 IPX       0.016200
     47 F11         -8.3190    -0.3480    -0.9600 f          1 IPX      -0.190000
     48 H4          -6.8110    -0.7940     1.1770 ha         1 IPX       0.133000
@<TRIPOS>BOND
     1     1    13 1   
     2     1    14 1   
     3     1    17 1   
     4     1    28 1   
     5     2     3 ar  
     6     2     4 ar  
     7     2    10 1   
     8     3     5 ar  
     9     3     8 1   
    10     4     6 ar  
    11     4    48 1   
    12     5     7 ar  
    13     5    29 1   
    14     6     7 ar  
    15     6    47 1   
    16     7    30 1   
    17     8     9 1   
    18     8    31 1   
    19     9    10 2   
    20     9    11 1   
    21    10    32 1   
    22    11    12 2   
    23    11    13 1   
    24    13    33 1   
    25    14    15 1   
    26    14    34 1   
    27    14    35 1   
    28    15    16 ar  
    29    15    18 ar  
    30    16    17 1   
    31    16    21 ar  
    32    17    22 1   
    33    17    36 1   
    34    18    19 ar  
    35    18    37 1   
    36    19    20 ar  
    37    19    38 1   
    38    20    21 ar  
    39    20    39 1   
    40    21    40 1   
    41    22    23 1   
    42    22    41 1   
    43    22    42 1   
    44    23    24 1   
    45    23    43 1   
    46    23    44 1   
    47    24    25 1   
    48    24    45 1   
    49    24    46 1   
    50    25    26 1   
    51    25    27 1   
@<TRIPOS>SUBSTRUCTURE
     1 IPX         1 TEMP              0 ****  ****    0 ROOT
