@<TRIPOS>MOLECULE
IPX
   48    51     1     0     0
SMALL
bcc


@<TRIPOS>ATOM
      1 C1           1.0080    -0.0140     1.2780 c5         1 IPX       0.110700
      2 C2          -4.9410    -0.3750     0.4020 ca         1 IPX      -0.095800
      3 C3          -4.2750    -0.2090    -0.8320 ca         1 IPX      -0.054200
      4 C4          -6.3390    -0.4910     0.4270 ca         1 IPX      -0.112000
      5 C5          -4.9650    -0.1530    -2.0430 ca         1 IPX      -0.121000
      6 C6          -6.9920    -0.4340    -0.7760 ca         1 IPX       0.093900
      7 C7          -6.3380    -0.2680    -2.0030 ca         1 IPX      -0.145000
      8 N8          -2.9400    -0.1300    -0.5750 na         1 IPX      -0.159400
      9 C9          -2.7320    -0.2390     0.7770 cc         1 IPX      -0.127300
     10 C10         -3.9390    -0.3890     1.4090 cd         1 IPX      -0.121200
     11 C12         -1.4200    -0.2060     1.4590 c          1 IPX       0.694300
     12 O13         -1.3710    -0.3200     2.6780 o          1 IPX      -0.598100
     13 N14         -0.3230    -0.0650     0.7000 ns         1 IPX      -0.561900
     14 C15          1.3170     1.3780     1.8650 c5         1 IPX      -0.048100
     15 C16          1.9090     2.1110     0.6950 ca         1 IPX      -0.093300
     16 C17          2.3170     1.2080    -0.2840 ca         1 IPX      -0.086300
     17 C18          2.0680    -0.2080     0.1730 c5         1 IPX      -0.031400
     18 C19          2.0700     3.4740     0.5070 ca         1 IPX      -0.122000
     19 C20          2.6390     3.9300    -0.6790 ca         1 IPX      -0.137000
     20 C21          3.0360     3.0300    -1.6610 ca         1 IPX      -0.132000
     21 C22          2.8770     1.6600    -1.4690 ca         1 IPX      -0.097000
     22 C23          3.3250    -0.8710     0.7540 c3         1 IPX      -0.069400
     23 C24          4.4710    -1.0520    -0.2310 c3         1 IPX      -0.055400
     24 C25          5.6360    -1.8000     0.3990 c3         1 IPX      -0.205400
     25 C26          6.8690    -2.0160    -0.4950 c          1 IPX       0.928600
     26 O27          6.8200    -1.6010    -1.6700 o          1 IPX      -0.846800
     27 O28          7.8340    -2.6020     0.0410 o          1 IPX      -0.846800
     28 H1           1.0800    -0.7950     2.0350 h1         1 IPX       0.083700
     29 H5          -4.4480    -0.0230    -2.9850 ha         1 IPX       0.137000
     30 H7          -6.9190    -0.2320    -2.9160 ha         1 IPX       0.144000
     31 HN8         -2.2410    -0.0100    -1.2880 hn         1 IPX       0.301700
     32 H10         -4.0860    -0.4960     2.4710 ha         1 IPX       0.174000
     33 HN14        -0.4010     0.0650    -0.2960 hn         1 IPX       0.309500
     34 H15          0.4340     1.8630     2.2830 hc         1 IPX       0.063700
     35 H15A         2.0450     1.2920     2.6770 hc         1 IPX       0.063700
     36 H18          1.6880    -0.8410    -0.6360 hc         1 IPX       0.058700
     37 H19          1.7520     4.1800     1.2660 ha         1 IPX       0.124000
     38 H20          2.7640     4.9930    -0.8430 ha         1 IPX       0.120000
     39 H21          3.4660     3.3970    -2.5840 ha         1 IPX       0.128000
     40 H22          3.1820     0.9630    -2.2400 ha         1 IPX       0.148000
     41 H23          3.6740    -0.2920     1.6170 hc         1 IPX       0.034700
     42 H23A         3.0320    -1.8510     1.1450 hc         1 IPX       0.034700
     43 H24          4.1150    -1.5940    -1.1130 hc         1 IPX       0.041200
     44 H24A         4.8130    -0.0790    -0.5900 hc         1 IPX       0.041200
     45 H25          5.9570    -1.2760     1.3070 hc         1 IPX       0.016200
     46 H25A         5.2940    -2.7820     0.7480 hc         1 IPX       0.016200
     47 F11         -8.3350    -0.5440    -0.7960 f          1 IPX      -0.154900
     48 H4          -6.8820    -0.6210     1.3540 ha         1 IPX       0.151000
@<TRIPOS>BOND
     1     1    13 1   
     2     1    14 1   
     3     1    17 1   
     4     1    28 1   
     5     2     3 ar  
     6     2     4 ar  
     7     2    10 1   
     8     3     5 ar  
     9     3     8 1   
    10     4     6 ar  
    11     4    48 1   
    12     5     7 ar  
    13     5    29 1   
    14     6     7 ar  
    15     6    47 1   
    16     7    30 1   
    17     8     9 1   
    18     8    31 1   
    19     9    10 2   
    20     9    11 1   
    21    10    32 1   
    22    11    12 2   
    23    11    13 1   
    24    13    33 1   
    25    14    15 1   
    26    14    34 1   
    27    14    35 1   
    28    15    16 ar  
    29    15    18 ar  
    30    16    17 1   
    31    16    21 ar  
    32    17    22 1   
    33    17    36 1   
    34    18    19 ar  
    35    18    37 1   
    36    19    20 ar  
    37    19    38 1   
    38    20    21 ar  
    39    20    39 1   
    40    21    40 1   
    41    22    23 1   
    42    22    41 1   
    43    22    42 1   
    44    23    24 1   
    45    23    43 1   
    46    23    44 1   
    47    24    25 1   
    48    24    45 1   
    49    24    46 1   
    50    25    26 1   
    51    25    27 1   
@<TRIPOS>SUBSTRUCTURE
     1 IPX         1 TEMP              0 ****  ****    0 ROOT
