@<TRIPOS>MOLECULE
IPY
   89    92     1     0     0
SMALL
abcg2


@<TRIPOS>ATOM
      1 C           10.9490    -6.5640     7.0160 cc         1 IPY      -0.020400
      2 C1           7.4520    -4.6470    12.1590 cc         1 IPY      -0.185000
      3 C2          10.7030    -7.9200     6.9060 cd         1 IPY      -0.178000
      4 C3           9.5050    -9.6710     8.1560 c3         1 IPY       0.058900
      5 C4           9.7010    -7.2210     8.7630 cd         1 IPY      -0.237600
      6 C5           8.9450    -7.3080    10.0180 c          1 IPY       0.648700
      7 C6           7.8210    -5.9180    11.6840 cc         1 IPY      -0.017400
      8 C8           7.4110    -6.8390    12.6310 cd         1 IPY      -0.174000
      9 C10          6.8280    -4.8290    13.3810 cd         1 IPY      -0.239600
     10 C11          6.2940    -3.8210    14.3050 c          1 IPY       0.649700
     11 C12          5.6530    -1.4650    14.4180 cc         1 IPY      -0.013400
     12 C13          5.5450    -0.2040    13.8070 cc         1 IPY      -0.182000
     13 C14          5.2730    -1.3090    15.7380 cd         1 IPY      -0.171000
     14 C16          5.1020     0.6860    14.7690 cd         1 IPY      -0.246600
     15 C18          6.2980     8.5590    13.3400 c3         1 IPY       0.105000
     16 C19          4.9740     9.1800    13.7780 c3         1 IPY      -0.141400
     17 C20          4.8340    10.6460    13.4200 c3         1 IPY       0.102600
     18 C21          5.6880    12.9380    13.5820 c3         1 IPY       0.071900
     19 C22          5.8960    11.4570    15.5160 c3         1 IPY       0.071900
     20 C23          4.8560     2.1310    14.6500 c          1 IPY       0.647700
     21 C25         13.0010    -4.9790     4.3820 cc         1 IPY       0.332000
     22 C26         13.7270    -3.0210     3.9590 cd         1 IPY       0.231900
     23 C27         14.1680    -3.8340     2.9470 cc         1 IPY      -0.218000
     24 C29          4.6480     4.0050    13.0870 c3         1 IPY       0.120000
     25 C30          5.9510     4.7850    13.2590 c3         1 IPY      -0.183400
     26 C31          5.7960     6.2210    12.8110 c          1 IPY       0.605100
     27 C32         10.3150    -6.1220     8.1890 cc         1 IPY      -0.178000
     28 O1           8.7580    -8.3600    10.6140 o          1 IPY      -0.608100
     29 O2           6.0760    -4.0500    15.4870 o          1 IPY      -0.609100
     30 O3           4.7200     2.8600    15.6270 o          1 IPY      -0.632100
     31 O5           5.2120     6.5130    11.7750 o          1 IPY      -0.599100
     32 N            9.9540    -8.3040     7.9700 na         1 IPY       0.076000
     33 N1           8.4800    -6.1210    10.4750 ns         1 IPY      -0.372100
     34 N3           6.8190    -6.1670    13.6510 na         1 IPY       0.076000
     35 N4           6.0720    -2.6100    13.7440 ns         1 IPY      -0.374100
     36 N5           4.9490    -0.0050    15.9370 na         1 IPY       0.075000
     37 N6           6.3560     7.1430    13.6110 ns         1 IPY      -0.511900
     38 N7           5.8720    11.5360    14.0350 nx         1 IPY      -0.659000
     39 N8          11.6760    -5.7290     6.1750 ns         1 IPY      -0.355100
     40 N9          13.7010    -5.0790     3.2260 na         1 IPY      -0.112500
     41 N10         13.0030    -3.7460     4.8420 nd         1 IPY      -0.676000
     42 N11          4.7950     2.6010    13.3900 ns         1 IPY      -0.504900
     43 H1           7.6530    -3.7060    11.6690 ha         1 IPY       0.126000
     44 H2          10.9970    -8.6330     6.1570 h4         1 IPY       0.177000
     45 H31          8.4270    -9.7160     8.2840 h1         1 IPY       0.062367
     46 H32A         9.7700   -10.2340     7.2650 h1         1 IPY       0.062367
     47 H33          9.9840   -10.1300     9.0160 h1         1 IPY       0.062367
     48 H8           7.4880    -7.9100    12.6520 h4         1 IPY       0.179000
     49 H91          5.2150    -6.5600    14.9510 h1         1 IPY       0.062700
     50 H92          6.3010    -7.9120    14.6230 h1         1 IPY       0.062700
     51 H93          6.8140    -6.6150    15.7080 h1         1 IPY       0.062700
     52 H13          5.7930     0.0210    12.7810 ha         1 IPY       0.126000
     53 H14          5.2030    -2.0190    16.5410 h4         1 IPY       0.181000
     54 H151         3.5130     0.9600    17.1330 h1         1 IPY       0.061367
     55 H152         4.4090    -0.3560    17.8950 h1         1 IPY       0.061367
     56 H153         5.1890     1.2090    17.6400 h1         1 IPY       0.061367
     57 H181         6.4580     8.7320    12.2750 h1         1 IPY       0.048700
     58 H182         7.1420     9.0130    13.8640 h1         1 IPY       0.048700
     59 H191         4.1560     8.6740    13.2630 hc         1 IPY       0.094700
     60 H192         4.8090     9.0150    14.8450 hc         1 IPY       0.094700
     61 H201         4.9120    10.7890    12.3430 hx         1 IPY       0.100700
     62 H202         3.8690    11.0310    13.7460 hx         1 IPY       0.100700
     63 H211         6.4930    13.5450    13.9840 hx         1 IPY       0.100700
     64 H212         5.7100    12.9660    12.4980 hx         1 IPY       0.100700
     65 H213         4.7300    13.3000    13.9450 hx         1 IPY       0.100700
     66 H221         6.6330    12.1620    15.8890 hx         1 IPY       0.100700
     67 H222         4.9110    11.7100    15.8970 hx         1 IPY       0.100700
     68 H223         6.1710    10.4550    15.8320 hx         1 IPY       0.100700
     69 H26         13.8990    -1.9640     4.0840 h4         1 IPY       0.041100
     70 H27         14.7640    -3.6330     2.0730 h4         1 IPY       0.161000
     71 H281        14.5330    -5.9400     1.5440 h1         1 IPY       0.064367
     72 H282        14.4920    -7.0050     2.9540 h1         1 IPY       0.064367
     73 H283        13.0060    -6.6750     2.0500 h1         1 IPY       0.064367
     74 H291         3.8690     4.4360    13.7180 h1         1 IPY       0.065200
     75 H292         4.3050     4.0800    12.0570 h1         1 IPY       0.065200
     76 H301         6.2890     4.7240    14.2940 hc         1 IPY       0.077200
     77 H302         6.7300     4.3260    12.6430 hc         1 IPY       0.077200
     78 H32         10.3390    -5.1150     8.5780 ha         1 IPY       0.131000
     79 HN1          8.5920    -5.3040     9.8970 hn         1 IPY       0.326500
     80 HN4          6.1910    -2.5110    12.7490 hn         1 IPY       0.327500
     81 HN6          6.7810     6.8460    14.4740 hn         1 IPY       0.330500
     82 HN7          6.7870    11.2390    13.6940 hn         1 IPY       0.501000
     83 HN8         11.7330    -4.7530     6.4310 hn         1 IPY       0.351500
     84 H11          4.8690     1.9640    12.6150 hn         1 IPY       0.329500
     85 C9           6.2540    -6.8420    14.8050 c3         1 IPY       0.057900
     86 C24         12.3160    -6.1010     5.0500 c          1 IPY       0.542600
     87 C15          4.4900     0.4910    17.2200 c3         1 IPY       0.059900
     88 C28         13.9420    -6.2490     2.4010 c3         1 IPY       0.059900
     89 O4          12.3330    -7.2450     4.6170 o          1 IPY      -0.611100
@<TRIPOS>BOND
     1     1     3 2   
     2     1    27 1   
     3     1    39 1   
     4     2     7 1   
     5     2     9 2   
     6     2    43 1   
     7     3    32 1   
     8     3    44 1   
     9     4    32 1   
    10     4    45 1   
    11     4    46 1   
    12     4    47 1   
    13     5     6 1   
    14     5    27 2   
    15     5    32 1   
    16     6    28 2   
    17     6    33 1   
    18     7     8 2   
    19     7    33 1   
    20     8    34 1   
    21     8    48 1   
    22     9    10 1   
    23     9    34 1   
    24    10    29 2   
    25    10    35 1   
    26    11    12 1   
    27    11    13 2   
    28    11    35 1   
    29    12    14 2   
    30    12    52 1   
    31    13    36 1   
    32    13    53 1   
    33    14    20 1   
    34    14    36 1   
    35    15    16 1   
    36    15    37 1   
    37    15    57 1   
    38    15    58 1   
    39    16    17 1   
    40    16    59 1   
    41    16    60 1   
    42    17    38 1   
    43    17    61 1   
    44    17    62 1   
    45    18    38 1   
    46    18    63 1   
    47    18    64 1   
    48    18    65 1   
    49    19    38 1   
    50    19    66 1   
    51    19    67 1   
    52    19    68 1   
    53    20    30 2   
    54    20    42 1   
    55    21    40 1   
    56    21    41 2   
    57    21    86 1   
    58    22    23 2   
    59    22    41 1   
    60    22    69 1   
    61    23    40 1   
    62    23    70 1   
    63    24    25 1   
    64    24    42 1   
    65    24    74 1   
    66    24    75 1   
    67    25    26 1   
    68    25    76 1   
    69    25    77 1   
    70    26    31 2   
    71    26    37 1   
    72    27    78 1   
    73    33    79 1   
    74    34    85 1   
    75    35    80 1   
    76    36    87 1   
    77    37    81 1   
    78    38    82 1   
    79    39    83 1   
    80    39    86 1   
    81    40    88 1   
    82    42    84 1   
    83    49    85 1   
    84    50    85 1   
    85    51    85 1   
    86    54    87 1   
    87    55    87 1   
    88    56    87 1   
    89    71    88 1   
    90    72    88 1   
    91    73    88 1   
    92    86    89 2   
@<TRIPOS>SUBSTRUCTURE
     1 IPY         1 TEMP              0 ****  ****    0 ROOT
