@<TRIPOS>MOLECULE
IPY
   89    92     1     0     0
SMALL
No Charge or Current Charge


@<TRIPOS>ATOM
      1 C           10.5220    -6.2190     7.2400 cc         1 IPY      -0.020400
      2 C1           7.2530    -5.0410    12.6010 cc         1 IPY      -0.185000
      3 C2          10.7720    -7.5500     7.0580 cd         1 IPY      -0.178000
      4 C3          10.2480    -9.6750     8.3420 c3         1 IPY       0.058900
      5 C4           9.5970    -7.2890     9.0140 cd         1 IPY      -0.237600
      6 C5           8.8770    -7.5590    10.2940 c          1 IPY       0.648700
      7 C6           7.6890    -6.2700    12.0840 cc         1 IPY      -0.017400
      8 C8           7.2970    -7.2660    12.9360 cd         1 IPY      -0.174000
      9 C10          6.5820    -5.2540    13.7850 cd         1 IPY      -0.239600
     10 C11          5.9610    -4.2110    14.6540 c          1 IPY       0.649700
     11 C12          5.6760    -1.7230    14.6830 cc         1 IPY      -0.013400
     12 C13          5.8950    -0.4750    14.0810 cc         1 IPY      -0.182000
     13 C14          4.9760    -1.5310    15.8420 cd         1 IPY      -0.171000
     14 C16          5.3330     0.5130    14.8580 cd         1 IPY      -0.246600
     15 C18          7.0530     8.2500    13.6270 c3         1 IPY       0.105000
     16 C19          5.9100     8.6620    12.6790 c3         1 IPY      -0.141400
     17 C20          5.9370    10.1520    12.2840 c3         1 IPY       0.102600
     18 C21          5.9980    12.5770    13.0040 c3         1 IPY       0.071900
     19 C22          4.4950    10.9550    14.2420 c3         1 IPY       0.071900
     20 C23          5.3430     1.9760    14.5740 c          1 IPY       0.647700
     21 C25         11.7960    -3.8210     4.6270 cc         1 IPY       0.332000
     22 C26         11.7080    -1.6560     4.3790 cd         1 IPY       0.231900
     23 C27         12.3950    -2.1230     3.2930 cc         1 IPY      -0.218000
     24 C29          6.1650     3.6690    12.9020 c3         1 IPY       0.120000
     25 C30          7.3060     4.4040    13.6260 c3         1 IPY      -0.183400
     26 C31          7.4520     5.8230    13.0860 c          1 IPY       0.605100
     27 C32          9.8050    -6.0560     8.4340 cc         1 IPY      -0.178000
     28 O1           8.7260    -8.6820    10.7570 o          1 IPY      -0.608100
     29 O2           5.3760    -4.4670    15.6990 o          1 IPY      -0.609100
     30 O3           4.8290     2.8180    15.2950 o          1 IPY      -0.632100
     31 O5           7.9450     6.0600    11.9940 o          1 IPY      -0.599100
     32 N           10.2040    -8.2180     8.1500 na         1 IPY       0.076000
     33 N1           8.3980    -6.4120    10.9000 ns         1 IPY      -0.372100
     34 N3           6.6120    -6.6460    13.9890 na         1 IPY       0.076000
     35 N4           6.1140    -2.9310    14.1580 ns         1 IPY      -0.374100
     36 N5           4.7600    -0.1520    15.9570 na         1 IPY       0.075000
     37 N6           7.0200     6.8190    13.9330 ns         1 IPY      -0.511900
     38 N7           5.8090    11.1240    13.4610 nx         1 IPY      -0.659000
     39 N8          10.8990    -5.1740     6.4060 ns         1 IPY      -0.355100
     40 N9          12.4530    -3.4920     3.4450 na         1 IPY      -0.112500
     41 N10         11.3390    -2.6990     5.2000 nd         1 IPY      -0.676000
     42 N11          5.9890     2.3060    13.4070 ns         1 IPY      -0.504900
     43 H1           7.4380    -4.0890    12.1120 ha         1 IPY       0.126000
     44 H2          11.2930    -8.0730     6.2650 h4         1 IPY       0.177000
     45 H31          9.2270   -10.0710     8.3790 h1         1 IPY       0.062367
     46 H32A        10.7860   -10.1460     7.5100 h1         1 IPY       0.062367
     47 H33         10.7650    -9.9060     9.2810 h1         1 IPY       0.062367
     48 H8           7.4400    -8.3380    12.8880 h4         1 IPY       0.179000
     49 H91          4.9420    -7.1790    15.1580 h1         1 IPY       0.062700
     50 H92          6.1990    -8.4420    15.0230 h1         1 IPY       0.062700
     51 H93          6.4800    -7.0140    16.0600 h1         1 IPY       0.062700
     52 H13          6.4300    -0.3460    13.1440 ha         1 IPY       0.126000
     53 H14          4.6190    -2.2380    16.5810 h4         1 IPY       0.181000
     54 H151         3.1680     1.0220    16.6820 h1         1 IPY       0.061367
     55 H152         3.7050    -0.2790    17.7830 h1         1 IPY       0.061367
     56 H153         4.7060     1.1880    17.5830 h1         1 IPY       0.061367
     57 H181         8.0220     8.4970    13.1710 h1         1 IPY       0.048700
     58 H182         6.9700     8.8040    14.5710 h1         1 IPY       0.048700
     59 H191         5.9770     8.0680    11.7600 hc         1 IPY       0.094700
     60 H192         4.9450     8.4150    13.1360 hc         1 IPY       0.094700
     61 H201         6.8760    10.3610    11.7630 hx         1 IPY       0.100700
     62 H202         5.1180    10.3490    11.5870 hx         1 IPY       0.100700
     63 H211         5.9600    13.2450    13.8670 hx         1 IPY       0.100700
     64 H212         6.9640    12.6860    12.5050 hx         1 IPY       0.100700
     65 H213         5.2010    12.8460    12.3060 hx         1 IPY       0.100700
     66 H221         4.4650    11.6650    15.0730 hx         1 IPY       0.100700
     67 H222         3.6490    11.1440    13.5770 hx         1 IPY       0.100700
     68 H223         4.4230     9.9380    14.6370 hx         1 IPY       0.100700
     69 H26         11.4590    -0.6290     4.6150 h4         1 IPY       0.041100
     70 H27         12.8300    -1.5960     2.4540 h4         1 IPY       0.161000
     71 H281        13.5350    -3.8710     1.6680 h1         1 IPY       0.064367
     72 H282        13.9000    -4.9730     3.0270 h1         1 IPY       0.064367
     73 H283        12.3620    -5.1390     2.1260 h1         1 IPY       0.064367
     74 H291         5.2240     4.2220    13.0310 h1         1 IPY       0.065200
     75 H292         6.3810     3.6200    11.8260 h1         1 IPY       0.065200
     76 H301         7.0870     4.4290    14.7000 hc         1 IPY       0.077200
     77 H302         8.2400     3.8600    13.4470 hc         1 IPY       0.077200
     78 H32          9.4810    -5.0900     8.8100 ha         1 IPY       0.131000
     79 HN1          8.6110    -5.5710    10.3820 hn         1 IPY       0.326500
     80 HN4          6.6220    -2.9020    13.2850 hn         1 IPY       0.327500
     81 HN6          6.6400     6.5240    14.8250 hn         1 IPY       0.330500
     82 HN7          6.5930    10.9200    14.1250 hn         1 IPY       0.501000
     83 HN8         10.6380    -4.2300     6.6770 hn         1 IPY       0.351500
     84 H11          6.3760     1.5360    12.8770 hn         1 IPY       0.329500
     85 C9           6.0220    -7.3650    15.1280 c3         1 IPY       0.057900
     86 C24         11.6030    -5.2020     5.2090 c          1 IPY       0.542600
     87 C15          4.0400     0.4840    17.0700 c3         1 IPY       0.059900
     88 C28         13.1020    -4.4260     2.5100 c3         1 IPY       0.059900
     89 O4          12.0130    -6.2440     4.7010 o          1 IPY      -0.611100
@<TRIPOS>BOND
     1     1     3 2   
     2     1    27 1   
     3     1    39 1   
     4     2     7 1   
     5     2     9 2   
     6     2    43 1   
     7     3    32 1   
     8     3    44 1   
     9     4    32 1   
    10     4    45 1   
    11     4    46 1   
    12     4    47 1   
    13     5     6 1   
    14     5    27 2   
    15     5    32 1   
    16     6    28 2   
    17     6    33 1   
    18     7     8 2   
    19     7    33 1   
    20     8    34 1   
    21     8    48 1   
    22     9    10 1   
    23     9    34 1   
    24    10    29 2   
    25    10    35 1   
    26    11    12 1   
    27    11    13 2   
    28    11    35 1   
    29    12    14 2   
    30    12    52 1   
    31    13    36 1   
    32    13    53 1   
    33    14    20 1   
    34    14    36 1   
    35    15    16 1   
    36    15    37 1   
    37    15    57 1   
    38    15    58 1   
    39    16    17 1   
    40    16    59 1   
    41    16    60 1   
    42    17    38 1   
    43    17    61 1   
    44    17    62 1   
    45    18    38 1   
    46    18    63 1   
    47    18    64 1   
    48    18    65 1   
    49    19    38 1   
    50    19    66 1   
    51    19    67 1   
    52    19    68 1   
    53    20    30 2   
    54    20    42 1   
    55    21    40 1   
    56    21    41 2   
    57    21    86 1   
    58    22    23 2   
    59    22    41 1   
    60    22    69 1   
    61    23    40 1   
    62    23    70 1   
    63    24    25 1   
    64    24    42 1   
    65    24    74 1   
    66    24    75 1   
    67    25    26 1   
    68    25    76 1   
    69    25    77 1   
    70    26    31 2   
    71    26    37 1   
    72    27    78 1   
    73    33    79 1   
    74    34    85 1   
    75    35    80 1   
    76    36    87 1   
    77    37    81 1   
    78    38    82 1   
    79    39    83 1   
    80    39    86 1   
    81    40    88 1   
    82    42    84 1   
    83    49    85 1   
    84    50    85 1   
    85    51    85 1   
    86    54    87 1   
    87    55    87 1   
    88    56    87 1   
    89    71    88 1   
    90    72    88 1   
    91    73    88 1   
    92    86    89 2   
@<TRIPOS>SUBSTRUCTURE
     1 IPY         1 TEMP              0 ****  ****    0 ROOT
