@<TRIPOS>MOLECULE
IPZ
   23    23     1     0     0
SMALL
No Charge or Current Charge


@<TRIPOS>ATOM
      1 C9           0.4530    -1.2770    -2.5770 c3         1 IPZ      -0.083100
      2 C8           0.6360     0.0110    -1.7380 c3         1 IPZ      -0.098000
      3 C10          0.4510     1.2820    -2.6030 c3         1 IPZ      -0.083100
      4 C2          -0.2730     0.0210    -0.4940 ca         1 IPZ       0.303300
      5 N1          -1.6190     0.0420    -0.7430 nb         1 IPZ      -0.623000
      6 C6          -2.4200     0.0490     0.3560 ca         1 IPZ       0.246900
      7 C5          -1.9010     0.0360     1.6770 ca         1 IPZ       0.324900
      8 N4          -0.5650     0.0140     1.9400 nb         1 IPZ      -0.730000
      9 C3           0.2540     0.0070     0.8500 ca         1 IPZ       0.539300
     10 O7           1.6220    -0.0160     1.0530 os         1 IPZ      -0.454300
     11 C11          2.1880    -0.0320     2.3790 c3         1 IPZ       0.157900
     12 H91          1.1670    -1.3020    -3.4090 hc         1 IPZ       0.038533
     13 H92          0.6230    -2.1660    -1.9580 hc         1 IPZ       0.038533
     14 H93         -0.5600    -1.3370    -2.9940 hc         1 IPZ       0.038533
     15 H8           1.6840     0.0170    -1.4160 hc         1 IPZ       0.065700
     16 H101        -0.5600     1.3300    -3.0270 hc         1 IPZ       0.038533
     17 H102         0.6140     2.1850    -2.0020 hc         1 IPZ       0.038533
     18 H103         1.1680     1.2940    -3.4330 hc         1 IPZ       0.038533
     19 H6          -3.4950     0.0660     0.1800 h4         1 IPZ       0.031100
     20 H5          -2.5690     0.0420     2.5360 h4         1 IPZ       0.028100
     21 H111         3.2840    -0.0490     2.3260 h1         1 IPZ       0.048367
     22 H112         1.8900     0.8610     2.9430 h1         1 IPZ       0.048367
     23 H113         1.8610    -0.9210     2.9350 h1         1 IPZ       0.048367
@<TRIPOS>BOND
     1     1     2 1   
     2     1    12 1   
     3     1    13 1   
     4     1    14 1   
     5     2     3 1   
     6     2     4 1   
     7     2    15 1   
     8     3    16 1   
     9     3    17 1   
    10     3    18 1   
    11     4     5 ar  
    12     4     9 ar  
    13     5     6 ar  
    14     6     7 ar  
    15     6    19 1   
    16     7     8 ar  
    17     7    20 1   
    18     8     9 ar  
    19     9    10 1   
    20    10    11 1   
    21    11    21 1   
    22    11    22 1   
    23    11    23 1   
@<TRIPOS>SUBSTRUCTURE
     1 IPZ         1 TEMP              0 ****  ****    0 ROOT
