@<TRIPOS>MOLECULE
IPZ
   23    23     1     0     0
SMALL
abcg2


@<TRIPOS>ATOM
      1 C9           0.4460    -1.2570    -2.5320 c3         1 IPZ      -0.083100
      2 C8           0.6750     0.0120    -1.7120 c3         1 IPZ      -0.098000
      3 C10          0.4420     1.2630    -2.5570 c3         1 IPZ      -0.083100
      4 C2          -0.2200     0.0210    -0.4990 ca         1 IPZ       0.303300
      5 N1          -1.5220     0.0420    -0.6940 nb         1 IPZ      -0.623000
      6 C6          -2.3390     0.0480     0.3590 ca         1 IPZ       0.246900
      7 C5          -1.8380     0.0340     1.6410 ca         1 IPZ       0.324900
      8 N4          -0.5250     0.0110     1.8700 nb         1 IPZ      -0.730000
      9 C3           0.2720     0.0040     0.8290 ca         1 IPZ       0.539300
     10 O7           1.5920    -0.0200     1.0030 os         1 IPZ      -0.454300
     11 C11          2.0910    -0.0300     2.3350 c3         1 IPZ       0.157900
     12 H91          1.1220    -1.2840    -3.3870 hc         1 IPZ       0.038533
     13 H92          0.6240    -2.1560    -1.9390 hc         1 IPZ       0.038533
     14 H93         -0.5770    -1.2980    -2.9090 hc         1 IPZ       0.038533
     15 H8           1.7150     0.0170    -1.3820 hc         1 IPZ       0.065700
     16 H101        -0.5810     1.2940    -2.9350 hc         1 IPZ       0.038533
     17 H102         0.6170     2.1750    -1.9840 hc         1 IPZ       0.038533
     18 H103         1.1170     1.2740    -3.4140 hc         1 IPZ       0.038533
     19 H6          -3.4050     0.0660     0.1710 h4         1 IPZ       0.031100
     20 H5          -2.4930     0.0390     2.5030 h4         1 IPZ       0.028100
     21 H111         3.1740    -0.0500     2.2450 h1         1 IPZ       0.048367
     22 H112         1.7880     0.8620     2.8850 h1         1 IPZ       0.048367
     23 H113         1.7560    -0.9110     2.8830 h1         1 IPZ       0.048367
@<TRIPOS>BOND
     1     1     2 1   
     2     1    12 1   
     3     1    13 1   
     4     1    14 1   
     5     2     3 1   
     6     2     4 1   
     7     2    15 1   
     8     3    16 1   
     9     3    17 1   
    10     3    18 1   
    11     4     5 ar  
    12     4     9 ar  
    13     5     6 ar  
    14     6     7 ar  
    15     6    19 1   
    16     7     8 ar  
    17     7    20 1   
    18     8     9 ar  
    19     9    10 1   
    20    10    11 1   
    21    11    21 1   
    22    11    22 1   
    23    11    23 1   
@<TRIPOS>SUBSTRUCTURE
     1 IPZ         1 TEMP              0 ****  ****    0 ROOT
