@<TRIPOS>MOLECULE
IQ0
   17    17     1     0     0
SMALL
abcg2


@<TRIPOS>ATOM
      1 C19         -1.5330    -0.0320    -0.2210 c          1 IQ0       0.722000
      2 O5          -2.0370    -1.1740    -0.2610 o          1 IQ0      -0.741000
      3 C18         -0.0250     0.0790    -0.4750 c5         1 IQ0      -0.185700
      4 C20          0.7990    -1.1680    -0.1460 c5         1 IQ0      -0.056400
      5 C21          2.2530    -0.6750     0.0050 c5         1 IQ0      -0.084900
      6 C22          2.1730     0.8660     0.0810 c5         1 IQ0      -0.084900
      7 C17          0.6940     1.1790     0.3040 c5         1 IQ0      -0.056400
      8 OXT         -2.1510     1.0350    -0.0230 o          1 IQ0      -0.741000
      9 H18          0.1020     0.3000    -1.5450 hc         1 IQ0       0.023700
     10 H201         0.4480    -1.5960     0.7960 hc         1 IQ0       0.037950
     11 H202         0.7000    -1.9490    -0.8990 hc         1 IQ0       0.037950
     12 H171         0.4200     2.1850    -0.0140 hc         1 IQ0       0.037950
     13 H172         0.4470     1.0990     1.3690 hc         1 IQ0       0.037950
     14 H211         2.7140    -1.0930     0.9020 hc         1 IQ0       0.013200
     15 H212         2.8750    -0.9920    -0.8340 hc         1 IQ0       0.013200
     16 H221         2.8170     1.2830     0.8580 hc         1 IQ0       0.013200
     17 H222         2.5000     1.3050    -0.8660 hc         1 IQ0       0.013200
@<TRIPOS>BOND
     1     1     2 1   
     2     1     3 1   
     3     1     8 1   
     4     3     4 1   
     5     3     7 1   
     6     3     9 1   
     7     4     5 1   
     8     4    10 1   
     9     4    11 1   
    10     5     6 1   
    11     5    14 1   
    12     5    15 1   
    13     6     7 1   
    14     6    16 1   
    15     6    17 1   
    16     7    12 1   
    17     7    13 1   
@<TRIPOS>SUBSTRUCTURE
     1 IQ0         1 TEMP              0 ****  ****    0 ROOT
