@<TRIPOS>MOLECULE
IQ0
   17    17     1     0     0
SMALL
No Charge or Current Charge


@<TRIPOS>ATOM
      1 C19         -1.5180     0.0410    -0.2870 c          1 IQ0       0.722000
      2 O5          -1.9320    -0.3830     0.7840 o          1 IQ0      -0.741000
      3 C18          0.0130     0.1900    -0.5300 c5         1 IQ0      -0.185700
      4 C20          0.7660    -1.1440    -0.2870 c5         1 IQ0      -0.056400
      5 C21          2.2470    -0.6670    -0.2610 c5         1 IQ0      -0.084900
      6 C22          2.1930     0.7940     0.2970 c5         1 IQ0      -0.084900
      7 C17          0.6840     1.0710     0.5580 c5         1 IQ0      -0.056400
      8 OXT         -2.2820     0.3560    -1.1880 o          1 IQ0      -0.741000
      9 H18          0.1940     0.5820    -1.5390 hc         1 IQ0       0.023700
     10 H201         0.4880    -1.6090     0.6660 hc         1 IQ0       0.037950
     11 H202         0.5790    -1.8830    -1.0750 hc         1 IQ0       0.037950
     12 H171         0.4300     2.1320     0.4560 hc         1 IQ0       0.037950
     13 H172         0.4000     0.7640     1.5720 hc         1 IQ0       0.037950
     14 H211         2.8700    -1.3220     0.3590 hc         1 IQ0       0.013200
     15 H212         2.6790    -0.6780    -1.2680 hc         1 IQ0       0.013200
     16 H221         2.7870     0.9090     1.2100 hc         1 IQ0       0.013200
     17 H222         2.5990     1.5010    -0.4370 hc         1 IQ0       0.013200
@<TRIPOS>BOND
     1     1     2 1   
     2     1     3 1   
     3     1     8 1   
     4     3     4 1   
     5     3     7 1   
     6     3     9 1   
     7     4     5 1   
     8     4    10 1   
     9     4    11 1   
    10     5     6 1   
    11     5    14 1   
    12     5    15 1   
    13     6     7 1   
    14     6    16 1   
    15     6    17 1   
    16     7    12 1   
    17     7    13 1   
@<TRIPOS>SUBSTRUCTURE
     1 IQ0         1 TEMP              0 ****  ****    0 ROOT
