@<TRIPOS>MOLECULE
IQ1
   45    48     1     0     0
SMALL
bcc


@<TRIPOS>ATOM
      1 C25          4.3800    -2.0700     1.3650 c3         1 IQ1      -0.083767
      2 C22          3.7680    -2.0700    -0.0430 c3         1 IQ1      -0.073300
      3 C23          4.8080    -1.5880    -1.0610 c3         1 IQ1      -0.083767
      4 C24          3.3220    -3.4850    -0.4060 c3         1 IQ1      -0.083767
      5 C2           2.5780    -1.1510    -0.0580 cc         1 IQ1       0.428800
      6 N3           1.3200    -1.5060    -0.1390 nd         1 IQ1      -0.674000
      7 N1           2.6810     0.1910     0.0430 na         1 IQ1      -0.286900
      8 C5           1.4200     0.7290     0.0490 cc         1 IQ1      -0.167600
      9 C6           1.1950     2.1600     0.1930 ca         1 IQ1       0.029000
     10 C7           0.1230     2.6620     0.9310 ca         1 IQ1      -0.241300
     11 C8          -0.0370     4.0330     1.0360 ca         1 IQ1       0.404700
     12 N9           0.7840     4.9180     0.4810 nb         1 IQ1      -0.660000
     13 C10          1.8130     4.4410    -0.2080 ca         1 IQ1       0.404700
     14 C11          2.0610     3.0890    -0.3840 ca         1 IQ1      -0.241300
     15 C4           0.5820    -0.3580    -0.0800 cd         1 IQ1       0.393800
     16 C12         -0.8740    -0.4130    -0.1880 ca         1 IQ1      -0.233800
     17 C13         -1.6070     0.5830    -0.8870 ca         1 IQ1       0.429200
     18 N14         -2.9010     0.5810    -1.0330 nb         1 IQ1      -0.664000
     19 C15         -3.6130    -0.4390    -0.4960 ca         1 IQ1       0.397600
     20 C16         -5.0180    -0.4450    -0.6420 ca         1 IQ1      -0.166300
     21 C21         -1.5840    -1.4660     0.3320 ca         1 IQ1      -0.052000
     22 C20         -2.9860    -1.5050     0.1950 ca         1 IQ1      -0.151300
     23 C19         -3.7770    -2.5510     0.7200 ca         1 IQ1      -0.106000
     24 C18         -5.1370    -2.5320     0.5660 ca         1 IQ1      -0.129000
     25 C17         -5.7610    -1.4690    -0.1210 ca         1 IQ1      -0.120000
     26 H251         4.7300    -1.0780     1.6570 hc         1 IQ1       0.041256
     27 H252         3.6560    -2.4050     2.1090 hc         1 IQ1       0.041256
     28 H253         5.2370    -2.7450     1.4010 hc         1 IQ1       0.041256
     29 H231         5.6520    -2.2790    -1.0860 hc         1 IQ1       0.041256
     30 H232         4.3870    -1.5380    -2.0660 hc         1 IQ1       0.041256
     31 H233         5.2090    -0.6030    -0.8140 hc         1 IQ1       0.041256
     32 H241         2.5760    -3.8660     0.2900 hc         1 IQ1       0.041256
     33 H242         2.8980    -3.5250    -1.4090 hc         1 IQ1       0.041256
     34 H243         4.1830    -4.1540    -0.3760 hc         1 IQ1       0.041256
     35 H1           3.5320     0.7140     0.1820 hn         1 IQ1       0.304700
     36 H7          -0.5680     2.0040     1.4390 ha         1 IQ1       0.145500
     37 H11          2.9090     2.7780    -0.9790 ha         1 IQ1       0.145500
     38 H8          -0.8680     4.4330     1.6060 h4         1 IQ1       0.022100
     39 H10          2.4810     5.1700    -0.6540 h4         1 IQ1       0.022100
     40 H13         -1.0710     1.4020    -1.3560 h4         1 IQ1       0.022100
     41 H21         -1.0760    -2.2670     0.8560 ha         1 IQ1       0.151000
     42 H16         -5.4870     0.3750    -1.1710 ha         1 IQ1       0.148000
     43 H17         -6.8380    -1.4690    -0.2350 ha         1 IQ1       0.133000
     44 H19         -3.2930    -3.3660     1.2440 ha         1 IQ1       0.134000
     45 H18         -5.7400    -3.3340     0.9710 ha         1 IQ1       0.132000
@<TRIPOS>BOND
     1     1     2 1   
     2     1    26 1   
     3     1    27 1   
     4     1    28 1   
     5     2     3 1   
     6     2     4 1   
     7     2     5 1   
     8     3    29 1   
     9     3    30 1   
    10     3    31 1   
    11     4    32 1   
    12     4    33 1   
    13     4    34 1   
    14     5     6 2   
    15     5     7 1   
    16     6    15 1   
    17     7     8 1   
    18     7    35 1   
    19     8     9 1   
    20     8    15 2   
    21     9    10 ar  
    22     9    14 ar  
    23    10    11 ar  
    24    10    36 1   
    25    11    12 ar  
    26    11    38 1   
    27    12    13 ar  
    28    13    14 ar  
    29    13    39 1   
    30    14    37 1   
    31    15    16 1   
    32    16    17 ar  
    33    16    21 ar  
    34    17    18 ar  
    35    17    40 1   
    36    18    19 ar  
    37    19    20 ar  
    38    19    22 ar  
    39    20    25 ar  
    40    20    42 1   
    41    21    22 ar  
    42    21    41 1   
    43    22    23 ar  
    44    23    24 ar  
    45    23    44 1   
    46    24    25 ar  
    47    24    45 1   
    48    25    43 1   
@<TRIPOS>SUBSTRUCTURE
     1 IQ1         1 TEMP              0 ****  ****    0 ROOT
