@<TRIPOS>MOLECULE
IQ1
   45    48     1     0     0
SMALL
No Charge or Current Charge


@<TRIPOS>ATOM
      1 C25          4.6790    -1.9000     1.2920 c3         1 IQ1      -0.083767
      2 C22          3.7900    -2.1310     0.0400 c3         1 IQ1      -0.073300
      3 C23          4.6400    -1.9040    -1.2400 c3         1 IQ1      -0.083767
      4 C24          3.3010    -3.6080     0.0510 c3         1 IQ1      -0.083767
      5 C2           2.6180    -1.1520     0.0550 cc         1 IQ1       0.428800
      6 N3           1.3310    -1.4750     0.0430 nd         1 IQ1      -0.674000
      7 N1           2.7650     0.2150     0.0680 na         1 IQ1      -0.286500
      8 C5           1.5060     0.7630     0.1010 cc         1 IQ1      -0.153000
      9 C6           1.1790     2.1800     0.2240 ca         1 IQ1       0.029000
     10 C7           0.2830     2.6450     1.2020 ca         1 IQ1      -0.158000
     11 C8           0.0260     4.0230     1.3010 ca         1 IQ1       0.339400
     12 N9           0.6150     4.9410     0.5000 nb         1 IQ1      -0.660000
     13 C10          1.4920     4.4940    -0.4290 ca         1 IQ1       0.339400
     14 C11          1.8050     3.1350    -0.5940 ca         1 IQ1      -0.158000
     15 C4           0.6160    -0.2910     0.0690 cd         1 IQ1       0.328500
     16 C12         -0.8560    -0.3010    -0.0630 ca         1 IQ1      -0.168500
     17 C13         -1.5720     0.8130    -0.5460 ca         1 IQ1       0.363900
     18 N14         -2.9140     0.8250    -0.7200 nb         1 IQ1      -0.664000
     19 C15         -3.6190    -0.2930    -0.4360 ca         1 IQ1       0.267000
     20 C16         -5.0170    -0.3030    -0.6020 ca         1 IQ1      -0.083000
     21 C21         -1.5880    -1.4800     0.1920 ca         1 IQ1      -0.034000
     22 C20         -2.9820    -1.4740     0.0180 ca         1 IQ1      -0.086000
     23 C19         -3.7350    -2.6330     0.2930 ca         1 IQ1      -0.088000
     24 C18         -5.1280    -2.6230     0.1220 ca         1 IQ1      -0.111000
     25 C17         -5.7700    -1.4570    -0.3250 ca         1 IQ1      -0.102000
     26 H251         5.0950    -0.8850     1.3030 hc         1 IQ1       0.041256
     27 H252         4.0980    -2.0360     2.2120 hc         1 IQ1       0.041256
     28 H253         5.5190    -2.6050     1.3140 hc         1 IQ1       0.041256
     29 H231         5.4810    -2.6070    -1.2850 hc         1 IQ1       0.041256
     30 H232         4.0300    -2.0470    -2.1410 hc         1 IQ1       0.041256
     31 H233         5.0510    -0.8880    -1.2690 hc         1 IQ1       0.041256
     32 H241         2.7050    -3.8190     0.9470 hc         1 IQ1       0.041256
     33 H242         2.6820    -3.8250    -0.8290 hc         1 IQ1       0.041256
     34 H243         4.1500    -4.3040     0.0420 hc         1 IQ1       0.041256
     35 H1           3.6470     0.7090     0.0890 hn         1 IQ1       0.355000
     36 H7          -0.2080     1.9560     1.8830 ha         1 IQ1       0.127500
     37 H11          2.5190     2.8340    -1.3550 ha         1 IQ1       0.127500
     38 H8          -0.6680     4.4040     2.0490 h4         1 IQ1       0.022100
     39 H10          1.9590     5.2510    -1.0580 h4         1 IQ1       0.022100
     40 H13         -1.0670     1.7270    -0.8480 h4         1 IQ1       0.022100
     41 H21         -1.0860    -2.3820     0.5360 ha         1 IQ1       0.133000
     42 H16         -5.5190     0.5950    -0.9510 ha         1 IQ1       0.130000
     43 H17         -6.8500    -1.4470    -0.4590 ha         1 IQ1       0.115000
     44 H19         -3.2420    -3.5390     0.6410 ha         1 IQ1       0.116000
     45 H18         -5.7100    -3.5170     0.3360 ha         1 IQ1       0.114000
@<TRIPOS>BOND
     1     1     2 1   
     2     1    26 1   
     3     1    27 1   
     4     1    28 1   
     5     2     3 1   
     6     2     4 1   
     7     2     5 1   
     8     3    29 1   
     9     3    30 1   
    10     3    31 1   
    11     4    32 1   
    12     4    33 1   
    13     4    34 1   
    14     5     6 2   
    15     5     7 1   
    16     6    15 1   
    17     7     8 1   
    18     7    35 1   
    19     8     9 1   
    20     8    15 2   
    21     9    10 ar  
    22     9    14 ar  
    23    10    11 ar  
    24    10    36 1   
    25    11    12 ar  
    26    11    38 1   
    27    12    13 ar  
    28    13    14 ar  
    29    13    39 1   
    30    14    37 1   
    31    15    16 1   
    32    16    17 ar  
    33    16    21 ar  
    34    17    18 ar  
    35    17    40 1   
    36    18    19 ar  
    37    19    20 ar  
    38    19    22 ar  
    39    20    25 ar  
    40    20    42 1   
    41    21    22 ar  
    42    21    41 1   
    43    22    23 ar  
    44    23    24 ar  
    45    23    44 1   
    46    24    25 ar  
    47    24    45 1   
    48    25    43 1   
@<TRIPOS>SUBSTRUCTURE
     1 IQ1         1 TEMP              0 ****  ****    0 ROOT
