@<TRIPOS>MOLECULE
IQ2
   30    31     1     0     0
SMALL
No Charge or Current Charge


@<TRIPOS>ATOM
      1 O5         -43.8900    23.1380    -1.6320 o          1 IQ2      -0.545000
      2 S1         -42.5010    22.7380    -1.8310 sy         1 IQ2       1.182600
      3 O6         -41.4430    23.0760    -0.8830 o          1 IQ2      -0.545000
      4 N7         -42.0700    23.5450    -3.1750 n8         1 IQ2      -1.061100
      5 C7         -42.3880    21.0250    -2.3350 ca         1 IQ2      -0.267500
      6 C12        -41.1720    20.3280    -2.1650 ca         1 IQ2       0.093000
      7 C11        -41.1290    18.9880    -2.5730 ca         1 IQ2      -0.280500
      8 S13        -39.7610    17.8710    -2.4850 sy         1 IQ2       1.202300
      9 O15        -39.4600    17.5710    -1.0800 o          1 IQ2      -0.513500
     10 O14        -38.7140    18.2970    -3.4200 o          1 IQ2      -0.513500
     11 C8         -43.5140    20.3780    -2.9050 ca         1 IQ2       0.034000
     12 C9         -43.4390    19.0270    -3.3050 ca         1 IQ2      -0.074000
     13 C10        -42.2280    18.3360    -3.1310 ca         1 IQ2      -0.043600
     14 C17        -41.9420    16.8980    -3.4940 c          1 IQ2       0.583600
     15 O17        -42.7420    16.1270    -4.0040 o          1 IQ2      -0.469000
     16 N16        -40.6270    16.5710    -3.1680 n          1 IQ2      -0.489200
     17 C19        -40.0200    15.2560    -3.4010 c3         1 IQ2       0.218100
     18 C20        -40.2820    14.3170    -2.3030 c1         1 IQ2      -0.196100
     19 C21        -40.5150    13.5670    -1.3840 c1         1 IQ2      -0.071100
     20 C29        -40.8140    12.6840    -0.2520 c3         1 IQ2      -0.014000
     21 H1         -42.8730    24.1650    -3.2600 hn         1 IQ2       0.498000
     22 H2         -41.3690    24.1670    -2.7790 hn         1 IQ2       0.498000
     23 H3         -40.2930    20.8090    -1.7340 ha         1 IQ2       0.160000
     24 H4         -44.4500    20.9170    -3.0390 ha         1 IQ2       0.136000
     25 H5         -44.3030    18.5320    -3.7410 ha         1 IQ2       0.147000
     26 H6         -40.4140    14.8330    -4.3340 h1         1 IQ2       0.079700
     27 H7         -38.9340    15.3660    -3.5240 h1         1 IQ2       0.079700
     28 H8         -40.3010    11.7230    -0.3720 hc         1 IQ2       0.058033
     29 H9         -40.4820    13.1430     0.6870 hc         1 IQ2       0.058033
     30 H10        -41.8930    12.4990    -0.1880 hc         1 IQ2       0.058033
@<TRIPOS>BOND
     1     1     2 2   
     2     2     3 2   
     3     2     4 1   
     4     2     5 1   
     5     4    21 1   
     6     4    22 1   
     7     5     6 ar  
     8     5    11 ar  
     9     6     7 ar  
    10     6    23 1   
    11     7     8 1   
    12     7    13 ar  
    13     8     9 2   
    14     8    10 2   
    15     8    16 1   
    16    11    12 ar  
    17    11    24 1   
    18    12    13 ar  
    19    12    25 1   
    20    13    14 1   
    21    14    15 2   
    22    14    16 1   
    23    16    17 1   
    24    17    18 1   
    25    17    26 1   
    26    17    27 1   
    27    18    19 3   
    28    19    20 1   
    29    20    28 1   
    30    20    29 1   
    31    20    30 1   
@<TRIPOS>SUBSTRUCTURE
     1 IQ2         1 TEMP              0 ****  ****    0 ROOT
