@<TRIPOS>MOLECULE
IQ2
   30    31     1     0     0
SMALL
abcg2


@<TRIPOS>ATOM
      1 O5         -43.4820    22.7680    -0.8820 o          1 IQ2      -0.545000
      2 S1         -42.3510    22.6970    -1.7760 sy         1 IQ2       1.182600
      3 O6         -41.0420    23.0750    -1.3030 o          1 IQ2      -0.545000
      4 N7         -42.7530    23.5260    -3.1190 n8         1 IQ2      -1.061100
      5 C7         -42.2280    21.0110    -2.3500 ca         1 IQ2      -0.267500
      6 C12        -41.0510    20.3080    -2.1200 ca         1 IQ2       0.093000
      7 C11        -41.0340    18.9920    -2.5400 ca         1 IQ2      -0.280500
      8 S13        -39.6970    17.8530    -2.3840 sy         1 IQ2       1.202300
      9 O15        -39.4560    17.4870    -1.0130 o          1 IQ2      -0.513500
     10 O14        -38.5630    18.2300    -3.1850 o          1 IQ2      -0.513500
     11 C8         -43.3330    20.4250    -2.9690 ca         1 IQ2       0.034000
     12 C9         -43.2840    19.0990    -3.3790 ca         1 IQ2      -0.074000
     13 C10        -42.1170    18.3840    -3.1580 ca         1 IQ2      -0.043600
     14 C17        -41.8580    16.9630    -3.5200 c          1 IQ2       0.583600
     15 O17        -42.6330    16.1940    -4.0450 o          1 IQ2      -0.469000
     16 N16        -40.5620    16.6360    -3.1650 n          1 IQ2      -0.489200
     17 C19        -39.9920    15.2960    -3.3460 c3         1 IQ2       0.218100
     18 C20        -40.3370    14.3780    -2.2650 c1         1 IQ2      -0.196100
     19 C21        -40.6320    13.6200    -1.3810 c1         1 IQ2      -0.071100
     20 C29        -40.9820    12.7110    -0.2990 c3         1 IQ2      -0.014000
     21 H1         -43.5480    24.1400    -2.9920 hn         1 IQ2       0.498000
     22 H2         -41.9710    23.9470    -3.6070 hn         1 IQ2       0.498000
     23 H3         -40.2030    20.7750    -1.6410 ha         1 IQ2       0.160000
     24 H4         -44.2300    21.0070    -3.1320 ha         1 IQ2       0.136000
     25 H5         -44.1310    18.6330    -3.8630 ha         1 IQ2       0.147000
     26 H6         -40.3600    14.9260    -4.3040 h1         1 IQ2       0.079700
     27 H7         -38.9100    15.4060    -3.4380 h1         1 IQ2       0.079700
     28 H8         -40.4900    11.7460    -0.4320 hc         1 IQ2       0.058033
     29 H9         -40.6730    13.1190     0.6650 hc         1 IQ2       0.058033
     30 H10        -42.0600    12.5400    -0.2680 hc         1 IQ2       0.058033
@<TRIPOS>BOND
     1     1     2 2   
     2     2     3 2   
     3     2     4 1   
     4     2     5 1   
     5     4    21 1   
     6     4    22 1   
     7     5     6 ar  
     8     5    11 ar  
     9     6     7 ar  
    10     6    23 1   
    11     7     8 1   
    12     7    13 ar  
    13     8     9 2   
    14     8    10 2   
    15     8    16 1   
    16    11    12 ar  
    17    11    24 1   
    18    12    13 ar  
    19    12    25 1   
    20    13    14 1   
    21    14    15 2   
    22    14    16 1   
    23    16    17 1   
    24    17    18 1   
    25    17    26 1   
    26    17    27 1   
    27    18    19 3   
    28    19    20 1   
    29    20    28 1   
    30    20    29 1   
    31    20    30 1   
@<TRIPOS>SUBSTRUCTURE
     1 IQ2         1 TEMP              0 ****  ****    0 ROOT
