@<TRIPOS>MOLECULE
IQ3
   55    59     1     0     0
SMALL
bcc


@<TRIPOS>ATOM
      1 C10         92.9860    -6.0470    14.9550 ca         1 IQ3       0.422600
      2 C11         93.8410    -4.8760    14.6670 cx         1 IQ3      -0.203000
      3 C13         95.2690    -5.0760    14.2320 cx         1 IQ3      -0.102900
      4 C19         91.2990    -7.1460    16.2640 ca         1 IQ3      -0.174000
      5 C20         89.5030    -9.5390    16.3990 ca         1 IQ3      -0.065000
      6 C22         92.0770    -6.0400    16.0200 ca         1 IQ3      -0.174300
      7 C23         87.2650    -9.9300    17.8050 ca         1 IQ3       0.615900
      8 C24         93.0950   -10.8430    10.8830 ca         1 IQ3       0.400200
      9 C25         95.7150   -10.8510    10.1960 ca         1 IQ3      -0.209300
     10 C26         88.5150    -8.5610    16.5090 ca         1 IQ3       0.394700
     11 C27         89.2300   -10.7410    17.0530 ca         1 IQ3       0.394700
     12 C28         98.3130    -8.6210    13.0380 c5         1 IQ3       0.100500
     13 C1          92.3550    -8.2030    14.4090 ca         1 IQ3       0.281800
     14 N2          93.0980    -7.1200    14.2000 nb         1 IQ3      -0.657000
     15 C4          92.6140    -9.3440    13.4850 c          1 IQ3       0.593600
     16 C5          95.3000    -9.9660    11.1810 ca         1 IQ3      -0.142600
     17 N6          93.4830    -9.0520    12.4920 ns         1 IQ3      -0.455100
     18 C7          91.4010    -8.2790    15.4410 ca         1 IQ3       0.132300
     19 C8          93.9490    -9.9510    11.5330 ca         1 IQ3      -0.015700
     20 N9          97.3070    -9.4950    12.4370 n          1 IQ3      -0.470800
     21 N12         90.6590    -9.4120    15.6520 nu         1 IQ3      -0.644000
     22 C14         94.2650    -4.5760    13.2550 cx         1 IQ3      -0.102900
     23 O15         96.0550    -7.7830    11.6680 o          1 IQ3      -0.609100
     24 O16         92.0900   -10.4430    13.6250 o          1 IQ3      -0.626100
     25 N17         87.4120    -8.7550    17.2160 nb         1 IQ3      -0.676500
     26 N18         88.1210   -10.9380    17.7440 nb         1 IQ3      -0.676500
     27 N21         93.5020   -11.6960     9.9580 nb         1 IQ3      -0.642000
     28 C29         97.5130   -10.9020    12.7890 c5         1 IQ3       0.100500
     29 C30         94.7850   -11.6970     9.6170 ca         1 IQ3       0.380200
     30 C31         99.3410    -9.5990    13.5950 c5         1 IQ3      -0.095400
     31 C32         98.5030   -10.8230    13.9450 c5         1 IQ3      -0.095400
     32 H1          93.6500    -4.0210    15.3050 hc         1 IQ3       0.082700
     33 H2          96.0080    -4.3860    14.6170 hc         1 IQ3       0.078450
     34 H3          95.6140    -6.0970    14.1260 hc         1 IQ3       0.078450
     35 H4          90.6280    -7.1380    17.1110 ha         1 IQ3       0.149000
     36 H5          91.9970    -5.1730    16.6630 ha         1 IQ3       0.146000
     37 H6          86.3600   -10.0830    18.3830 h5         1 IQ3       0.054100
     38 H7          92.0380   -10.8510    11.1170 h4         1 IQ3       0.042100
     39 H8          96.7490   -10.8850     9.8790 ha         1 IQ3       0.146000
     40 H9          88.6100    -7.6060    16.0050 h4         1 IQ3       0.032100
     41 H10         89.9380   -11.5630    16.9960 h4         1 IQ3       0.032100
     42 H12         97.8620    -8.0190    13.8320 h1         1 IQ3       0.055700
     43 H13         93.9120    -8.1350    12.5460 hn         1 IQ3       0.376500
     44 H14         90.9770   -10.2290    15.1430 hn         1 IQ3       0.489800
     45 H15         93.9250    -5.2560    12.4840 hc         1 IQ3       0.078450
     46 H16         94.3020    -3.5360    12.9570 hc         1 IQ3       0.078450
     47 H17         96.5760   -11.3830    13.0670 h1         1 IQ3       0.055700
     48 H18         97.9420   -11.4550    11.9500 h1         1 IQ3       0.055700
     49 H19         95.0870   -12.3960     8.8470 h4         1 IQ3       0.024100
     50 H20        100.0770    -9.8500    12.8280 hc         1 IQ3       0.056700
     51 H21         99.8780    -9.1850    14.4470 hc         1 IQ3       0.056700
     52 H22         97.9700   -10.6620    14.8850 hc         1 IQ3       0.056700
     53 H23         99.0880   -11.7360    14.0430 hc         1 IQ3       0.056700
     54 C3          96.2580    -8.9880    11.7910 c          1 IQ3       0.681700
     55 H11         98.7310    -7.9380    12.2980 h1         1 IQ3       0.055700
@<TRIPOS>BOND
     1     1     2 1   
     2     1     6 ar  
     3     1    14 ar  
     4     2     3 1   
     5     2    22 1   
     6     2    32 1   
     7     3    22 1   
     8     3    33 1   
     9     3    34 1   
    10     4     6 ar  
    11     4    18 ar  
    12     4    35 1   
    13     5    10 ar  
    14     5    11 ar  
    15     5    21 1   
    16     6    36 1   
    17     7    25 ar  
    18     7    26 ar  
    19     7    37 1   
    20     8    19 ar  
    21     8    27 ar  
    22     8    38 1   
    23     9    16 ar  
    24     9    29 ar  
    25     9    39 1   
    26    10    25 ar  
    27    10    40 1   
    28    11    26 ar  
    29    11    41 1   
    30    12    20 1   
    31    12    30 1   
    32    12    42 1   
    33    12    55 1   
    34    13    14 ar  
    35    13    15 1   
    36    13    18 ar  
    37    15    17 1   
    38    15    24 2   
    39    16    19 ar  
    40    16    54 1   
    41    17    19 1   
    42    17    43 1   
    43    18    21 1   
    44    20    28 1   
    45    20    54 1   
    46    21    44 1   
    47    22    45 1   
    48    22    46 1   
    49    23    54 2   
    50    27    29 ar  
    51    28    31 1   
    52    28    47 1   
    53    28    48 1   
    54    29    49 1   
    55    30    31 1   
    56    30    50 1   
    57    30    51 1   
    58    31    52 1   
    59    31    53 1   
@<TRIPOS>SUBSTRUCTURE
     1 IQ3         1 TEMP              0 ****  ****    0 ROOT
