@<TRIPOS>MOLECULE
IQ3
   55    59     1     0     0
SMALL
No Charge or Current Charge


@<TRIPOS>ATOM
      1 C10         93.2850    -6.5790    15.6100 ca         1 IQ3       0.357300
      2 C11         94.4770    -5.6540    15.5470 cx         1 IQ3      -0.203000
      3 C13         95.8690    -6.1170    15.1570 cx         1 IQ3      -0.102900
      4 C19         91.0950    -7.1780    16.4790 ca         1 IQ3      -0.156000
      5 C20         88.6510    -9.0980    16.0550 ca         1 IQ3       0.204000
      6 C22         92.1890    -6.2950    16.4440 ca         1 IQ3      -0.091000
      7 C23         86.0290    -8.9390    16.6950 ca         1 IQ3       0.089900
      8 C24         93.4540   -12.0670    12.0680 ca         1 IQ3       0.334900
      9 C25         95.7650   -11.4680    10.7140 ca         1 IQ3      -0.126000
     10 C26         87.9610    -7.8620    16.0770 ca         1 IQ3       0.066400
     11 C27         87.8870   -10.2460    16.3640 ca         1 IQ3       0.066400
     12 C28         98.0590    -7.8090    11.8560 c5         1 IQ3       0.100500
     13 C1          92.2720    -8.5650    14.8680 ca         1 IQ3       0.216500
     14 N2          93.3300    -7.6900    14.8440 nb         1 IQ3      -0.657000
     15 C4          92.3950    -9.8310    14.0170 c          1 IQ3       0.526600
     16 C5          95.2450   -10.4860    11.5870 ca         1 IQ3      -0.142600
     17 N6          93.5050    -9.8310    13.1810 ns         1 IQ3      -0.129000
     18 C7          91.1080    -8.3310    15.6700 ca         1 IQ3       0.336000
     19 C8          94.0440   -10.7940    12.2770 ca         1 IQ3      -0.043000
     20 N9          97.3280    -9.0930    11.8120 n          1 IQ3      -0.403800
     21 N12         90.0100    -9.2180    15.6990 nu         1 IQ3      -0.976000
     22 C14         95.0880    -5.2180    14.2300 cx         1 IQ3      -0.102900
     23 O15         95.2690    -8.1020    11.7140 o          1 IQ3      -0.609100
     24 O16         91.6060   -10.7740    14.0800 o          1 IQ3      -0.626100
     25 N17         86.6520    -7.7790    16.3990 nb         1 IQ3      -0.150500
     26 N18         86.5790   -10.1720    16.6900 nb         1 IQ3      -0.150500
     27 N21         93.9700   -13.0030    11.2350 nb         1 IQ3      -0.642000
     28 C29         98.1470   -10.2270    12.3030 c5         1 IQ3       0.100500
     29 C30         95.1050   -12.6990    10.5720 ca         1 IQ3       0.314900
     30 C31         99.5260    -8.3010    11.8820 c5         1 IQ3      -0.095400
     31 C32         99.4130    -9.5100    12.8420 c5         1 IQ3      -0.095400
     32 H1          94.4370    -4.8970    16.3260 hc         1 IQ3       0.082700
     33 H2          96.7150    -5.6850    15.6880 hc         1 IQ3       0.078450
     34 H3          96.0100    -7.1520    14.8530 hc         1 IQ3       0.078450
     35 H4          90.2640    -6.9730    17.1450 ha         1 IQ3       0.131000
     36 H5          92.1910    -5.4010    17.0610 ha         1 IQ3       0.128000
     37 H6          84.9740    -8.8750    16.9570 h5         1 IQ3       0.054100
     38 H7          92.5410   -12.3680    12.5750 h4         1 IQ3       0.042100
     39 H8          96.6560   -11.2780    10.1230 ha         1 IQ3       0.128000
     40 H9          88.4480    -6.9260    15.8100 h4         1 IQ3       0.032100
     41 H10         88.3310   -11.2400    16.3560 h4         1 IQ3       0.032100
     42 H12         97.8030    -7.2440    12.7630 h1         1 IQ3       0.055700
     43 H13         94.0350    -8.9670    13.2310 hn         1 IQ3       0.210000
     44 H14         90.2510   -10.1280    15.2720 hn         1 IQ3       0.545000
     45 H15         94.7000    -5.6560    13.3130 hc         1 IQ3       0.078450
     46 H16         95.4090    -4.1830    14.1370 hc         1 IQ3       0.078450
     47 H17         97.6390   -10.8070    13.0860 h1         1 IQ3       0.055700
     48 H18         98.4090   -10.9040    11.4800 h1         1 IQ3       0.055700
     49 H19         95.4940   -13.4610     9.8980 h4         1 IQ3       0.024100
     50 H20         99.8610    -8.6100    10.8840 hc         1 IQ3       0.056700
     51 H21        100.2200    -7.5320    12.2410 hc         1 IQ3       0.056700
     52 H22         99.2680    -9.1790    13.8780 hc         1 IQ3       0.056700
     53 H23        100.2990   -10.1540    12.8250 hc         1 IQ3       0.056700
     54 C3          95.9220    -9.1380    11.7350 c          1 IQ3       0.614700
     55 H11         97.8500    -7.1810    10.9800 h1         1 IQ3       0.055700
@<TRIPOS>BOND
     1     1     2 1   
     2     1     6 ar  
     3     1    14 ar  
     4     2     3 1   
     5     2    22 1   
     6     2    32 1   
     7     3    22 1   
     8     3    33 1   
     9     3    34 1   
    10     4     6 ar  
    11     4    18 ar  
    12     4    35 1   
    13     5    10 ar  
    14     5    11 ar  
    15     5    21 1   
    16     6    36 1   
    17     7    25 ar  
    18     7    26 ar  
    19     7    37 1   
    20     8    19 ar  
    21     8    27 ar  
    22     8    38 1   
    23     9    16 ar  
    24     9    29 ar  
    25     9    39 1   
    26    10    25 ar  
    27    10    40 1   
    28    11    26 ar  
    29    11    41 1   
    30    12    20 1   
    31    12    30 1   
    32    12    42 1   
    33    12    55 1   
    34    13    14 ar  
    35    13    15 1   
    36    13    18 ar  
    37    15    17 1   
    38    15    24 2   
    39    16    19 ar  
    40    16    54 1   
    41    17    19 1   
    42    17    43 1   
    43    18    21 1   
    44    20    28 1   
    45    20    54 1   
    46    21    44 1   
    47    22    45 1   
    48    22    46 1   
    49    23    54 2   
    50    27    29 ar  
    51    28    31 1   
    52    28    47 1   
    53    28    48 1   
    54    29    49 1   
    55    30    31 1   
    56    30    50 1   
    57    30    51 1   
    58    31    52 1   
    59    31    53 1   
@<TRIPOS>SUBSTRUCTURE
     1 IQ3         1 TEMP              0 ****  ****    0 ROOT
