@<TRIPOS>MOLECULE
IQ4
   81    82     1     0     0
SMALL
No Charge or Current Charge


@<TRIPOS>ATOM
      1 C5          32.4650    32.4940    38.2390 c3         1 IQ4       0.101000
      2 C6          32.7020    31.9040    36.8340 c3         1 IQ4      -0.156900
      3 C7          34.1750    31.8690    36.4680 cs         1 IQ4       0.378400
      4 C10         36.6900    33.8400    35.6380 c3         1 IQ4      -0.155900
      5 N12         38.2390    35.3800    34.5820 ns         1 IQ4      -0.395900
      6 C13         39.4360    35.9130    33.9250 c3         1 IQ4       0.088500
      7 C15         40.7400    36.0780    31.7000 c3         1 IQ4       0.088500
      8 C17         40.2280    38.4670    31.0250 cs         1 IQ4       0.376900
      9 C21         43.7240    39.7150    30.3780 cs         1 IQ4       0.378400
     10 C22         44.7200    38.8370    29.6420 c3         1 IQ4      -0.156900
     11 C26         44.6160    42.1350    26.4730 ca         1 IQ4      -0.170600
     12 C28         44.2390    44.5500    26.7320 ca         1 IQ4      -0.187000
     13 C39         27.8220    31.0570    39.6810 ca         1 IQ4      -0.031000
     14 C40         26.4750    31.4030    39.8860 ca         1 IQ4      -0.187000
     15 C41         26.0330    32.7030    39.6250 ca         1 IQ4       0.167100
     16 O42         24.7250    33.0260    39.8270 oh         1 IQ4      -0.524100
     17 C43         26.9370    33.6640    39.1560 ca         1 IQ4      -0.187000
     18 C1          28.2870    33.3260    38.9480 ca         1 IQ4      -0.031000
     19 C2          28.7560    32.0120    39.2090 ca         1 IQ4      -0.170600
     20 C3          30.2080    31.6100    38.9950 cs         1 IQ4       0.405500
     21 S38         30.7700    30.0560    39.2930 s          1 IQ4      -0.577900
     22 N4          31.0370    32.6110    38.5530 ns         1 IQ4      -0.402400
     23 S37         35.2700    30.8980    37.2810 s          1 IQ4      -0.589400
     24 N8          34.5050    32.6630    35.3990 ns         1 IQ4      -0.390400
     25 C9          35.8420    32.8430    34.8240 c3         1 IQ4       0.096500
     26 C11         38.0470    34.0880    35.0030 cs         1 IQ4       0.376900
     27 S36         39.2090    32.8870    34.8860 s          1 IQ4      -0.577400
     28 C14         39.4720    35.5700    32.4210 c3         1 IQ4      -0.118400
     29 N16         40.8960    37.5330    31.7760 ns         1 IQ4      -0.395900
     30 S35         39.0950    38.0910    29.8510 s          1 IQ4      -0.577400
     31 C18         40.6020    39.9020    31.3530 c3         1 IQ4      -0.155900
     32 C19         41.3550    40.6060    30.2040 c3         1 IQ4       0.096500
     33 N20         42.5180    39.8440    29.7380 ns         1 IQ4      -0.390400
     34 S34         44.0920    40.4430    31.8400 s          1 IQ4      -0.589400
     35 C23         45.9300    39.6280    29.1010 c3         1 IQ4       0.101000
     36 N24         45.5290    40.7910    28.3020 ns         1 IQ4      -0.402400
     37 C25         45.0410    40.7810    27.0190 cs         1 IQ4       0.405500
     38 S33         44.9140    39.3650    26.1280 s          1 IQ4      -0.577900
     39 C32         44.1690    42.2480    25.1350 ca         1 IQ4      -0.031000
     40 C31         43.7680    43.4880    24.6080 ca         1 IQ4      -0.187000
     41 C29         43.8030    44.6370    25.4040 ca         1 IQ4       0.167100
     42 O30         43.4120    45.8320    24.8810 oh         1 IQ4      -0.524100
     43 C27         44.6420    43.3130    27.2660 ca         1 IQ4      -0.031000
     44 H1          32.9560    31.8670    38.9970 h1         1 IQ4       0.083950
     45 H2          32.9170    33.4940    38.2950 h1         1 IQ4       0.083950
     46 H3          32.1300    32.4860    36.1000 hc         1 IQ4       0.079950
     47 H4          32.3040    30.8840    36.7970 hc         1 IQ4       0.079950
     48 H5          36.1340    34.7780    35.7500 hc         1 IQ4       0.079700
     49 H6          36.8410    33.4470    36.6500 hc         1 IQ4       0.079700
     50 H7          37.4680    36.0230    34.7280 hn         1 IQ4       0.318000
     51 H8          40.3290    35.5090    34.4220 h1         1 IQ4       0.070950
     52 H9          39.4450    37.0030    34.0560 h1         1 IQ4       0.070950
     53 H10         40.7060    35.7770    30.6440 h1         1 IQ4       0.070950
     54 H11         41.6260    35.6080    32.1480 h1         1 IQ4       0.070950
     55 H12         44.2340    38.3070    28.8150 hc         1 IQ4       0.079950
     56 H13         45.0840    38.0600    30.3250 hc         1 IQ4       0.079950
     57 H14         44.2670    45.4370    27.3610 ha         1 IQ4       0.127500
     58 H15         28.1290    30.0360    39.8960 ha         1 IQ4       0.130250
     59 H16         25.7740    30.6560    40.2500 ha         1 IQ4       0.127500
     60 H17         24.5990    33.9700    39.5940 ho         1 IQ4       0.469500
     61 H18         26.6040    34.6780    38.9480 ha         1 IQ4       0.127500
     62 H19         28.9500    34.1040    38.5820 ha         1 IQ4       0.130250
     63 H20         30.6140    33.5210    38.4190 hn         1 IQ4       0.319500
     64 H21         33.7460    33.1860    34.9740 hn         1 IQ4       0.320000
     65 H22         36.3490    31.8690    34.7770 h1         1 IQ4       0.085450
     66 H23         35.7320    33.2110    33.7950 h1         1 IQ4       0.085450
     67 H24         38.5830    35.9880    31.9340 hc         1 IQ4       0.078200
     68 H25         39.4160    34.4830    32.2950 hc         1 IQ4       0.078200
     69 H26         41.5740    37.8920    32.4400 hn         1 IQ4       0.318000
     70 H27         41.2080    39.9470    32.2650 hc         1 IQ4       0.079700
     71 H28         39.6880    40.4660    31.5730 hc         1 IQ4       0.079700
     72 H29         41.6820    41.6030    30.5300 h1         1 IQ4       0.085450
     73 H30         40.6710    40.7440    29.3550 h1         1 IQ4       0.085450
     74 H31         42.4270    39.3620    28.8500 hn         1 IQ4       0.320000
     75 H32         46.5660    38.9690    28.4940 h1         1 IQ4       0.083950
     76 H33         46.5360    39.9830    29.9450 h1         1 IQ4       0.083950
     77 H34         45.5970    41.6960    28.7500 hn         1 IQ4       0.319500
     78 H35         44.1290    41.3760    24.4850 ha         1 IQ4       0.130250
     79 H36         43.4290    43.5540    23.5770 ha         1 IQ4       0.127500
     80 H37         43.5030    46.5180    25.5760 ho         1 IQ4       0.469500
     81 H38         44.9650    43.2930    28.3030 ha         1 IQ4       0.130250
@<TRIPOS>BOND
     1     1     2 1   
     2     1    22 1   
     3     1    44 1   
     4     1    45 1   
     5     2     3 1   
     6     2    46 1   
     7     2    47 1   
     8     3    23 2   
     9     3    24 1   
    10     4    25 1   
    11     4    26 1   
    12     4    48 1   
    13     4    49 1   
    14     5     6 1   
    15     5    26 1   
    16     5    50 1   
    17     6    28 1   
    18     6    51 1   
    19     6    52 1   
    20     7    28 1   
    21     7    29 1   
    22     7    53 1   
    23     7    54 1   
    24     8    29 1   
    25     8    30 2   
    26     8    31 1   
    27     9    10 1   
    28     9    33 1   
    29     9    34 2   
    30    10    35 1   
    31    10    55 1   
    32    10    56 1   
    33    11    37 1   
    34    11    39 ar  
    35    11    43 ar  
    36    12    41 ar  
    37    12    43 ar  
    38    12    57 1   
    39    13    14 ar  
    40    13    19 ar  
    41    13    58 1   
    42    14    15 ar  
    43    14    59 1   
    44    15    16 1   
    45    15    17 ar  
    46    16    60 1   
    47    17    18 ar  
    48    17    61 1   
    49    18    19 ar  
    50    18    62 1   
    51    19    20 1   
    52    20    21 2   
    53    20    22 1   
    54    22    63 1   
    55    24    25 1   
    56    24    64 1   
    57    25    65 1   
    58    25    66 1   
    59    26    27 2   
    60    28    67 1   
    61    28    68 1   
    62    29    69 1   
    63    31    32 1   
    64    31    70 1   
    65    31    71 1   
    66    32    33 1   
    67    32    72 1   
    68    32    73 1   
    69    33    74 1   
    70    35    36 1   
    71    35    75 1   
    72    35    76 1   
    73    36    37 1   
    74    36    77 1   
    75    37    38 2   
    76    39    40 ar  
    77    39    78 1   
    78    40    41 ar  
    79    40    79 1   
    80    41    42 1   
    81    42    80 1   
    82    43    81 1   
@<TRIPOS>SUBSTRUCTURE
     1 IQ4         1 TEMP              0 ****  ****    0 ROOT
