@<TRIPOS>MOLECULE
IQ4
   81    82     1     0     0
SMALL
abcg2


@<TRIPOS>ATOM
      1 C5          32.3700    33.0500    38.1290 c3         1 IQ4       0.101000
      2 C6          32.6720    32.1410    36.9340 c3         1 IQ4      -0.156900
      3 C7          34.0440    32.4050    36.3770 cs         1 IQ4       0.378400
      4 C10         35.7410    34.5900    34.7060 c3         1 IQ4      -0.155900
      5 N12         37.0830    36.0220    33.3360 ns         1 IQ4      -0.395900
      6 C13         38.2550    36.5840    32.7000 c3         1 IQ4       0.088500
      7 C15         39.8810    36.4470    30.7720 c3         1 IQ4       0.088500
      8 C17         39.4200    38.4590    29.4250 cs         1 IQ4       0.376900
      9 C21         42.7390    39.6080    29.6810 cs         1 IQ4       0.378400
     10 C22         43.8800    38.6250    29.6280 c3         1 IQ4      -0.156900
     11 C26         45.9290    41.9780    27.5830 ca         1 IQ4      -0.170600
     12 C28         45.0400    44.2280    27.5070 ca         1 IQ4      -0.187000
     13 C39         28.9770    30.4800    40.5520 ca         1 IQ4      -0.031000
     14 C40         27.6980    30.3770    41.0580 ca         1 IQ4      -0.187000
     15 C41         26.9160    31.5230    41.2200 ca         1 IQ4       0.167100
     16 O42         25.6840    31.3720    41.7260 oh         1 IQ4      -0.524100
     17 C43         27.4400    32.7640    40.8610 ca         1 IQ4      -0.187000
     18 C1          28.7180    32.8500    40.3360 ca         1 IQ4      -0.031000
     19 C2          29.5110    31.7130    40.1720 ca         1 IQ4      -0.170600
     20 C3          30.8850    31.7990    39.6350 cs         1 IQ4       0.405500
     21 S38         32.0930    30.7780    40.1700 s          1 IQ4      -0.577900
     22 N4          31.0930    32.7460    38.7290 ns         1 IQ4      -0.402400
     23 S37         35.4020    32.1700    37.3180 s          1 IQ4      -0.589400
     24 N8          34.0860    32.8240    35.1250 ns         1 IQ4      -0.390400
     25 C9          35.2910    33.1600    34.4010 c3         1 IQ4       0.096500
     26 C11         37.0670    34.9310    34.0790 cs         1 IQ4       0.376900
     27 S36         38.4160    33.9930    34.3710 s          1 IQ4      -0.577400
     28 C14         38.5700    35.9360    31.3560 c3         1 IQ4      -0.118400
     29 N16         39.8760    37.8730    30.5170 ns         1 IQ4      -0.395900
     30 S35         38.7820    37.6430    28.1200 s          1 IQ4      -0.577400
     31 C18         39.5810    39.9540    29.3950 c3         1 IQ4      -0.155900
     32 C19         40.7280    40.3650    28.4660 c3         1 IQ4       0.096500
     33 N20         41.9280    39.5750    28.6420 ns         1 IQ4      -0.390400
     34 S34         42.5320    40.6360    30.9800 s          1 IQ4      -0.589400
     35 C23         45.2100    39.2370    30.0500 c3         1 IQ4       0.101000
     36 N24         45.4910    40.4760    29.3620 ns         1 IQ4      -0.402400
     37 C25         45.8860    40.5960    28.1030 cs         1 IQ4       0.405500
     38 S33         46.2960    39.2870    27.1500 s          1 IQ4      -0.577900
     39 C32         46.8980    42.3600    26.6530 ca         1 IQ4      -0.031000
     40 C31         46.9580    43.6510    26.1710 ca         1 IQ4      -0.187000
     41 C29         46.0260    44.6000    26.5950 ca         1 IQ4       0.167100
     42 O30         46.1230    45.8390    26.0920 oh         1 IQ4      -0.524100
     43 C27         45.0010    42.9350    27.9980 ca         1 IQ4      -0.031000
     44 H1          33.1480    32.9390    38.8820 h1         1 IQ4       0.083950
     45 H2          32.3450    34.0930    37.8110 h1         1 IQ4       0.083950
     46 H3          31.9030    32.2750    36.1700 hc         1 IQ4       0.079950
     47 H4          32.6370    31.1020    37.2660 hc         1 IQ4       0.079950
     48 H5          34.9660    35.2910    34.3890 hc         1 IQ4       0.079700
     49 H6          35.8570    34.6980    35.7880 hc         1 IQ4       0.079700
     50 H7          36.2120    36.5160    33.2040 hn         1 IQ4       0.318000
     51 H8          39.1020    36.4700    33.3790 h1         1 IQ4       0.070950
     52 H9          38.0670    37.6510    32.5780 h1         1 IQ4       0.070950
     53 H10         40.0990    35.9320    29.8370 h1         1 IQ4       0.070950
     54 H11         40.7020    36.2500    31.4620 h1         1 IQ4       0.070950
     55 H12         43.9710    38.2000    28.6270 hc         1 IQ4       0.079950
     56 H13         43.6460    37.8000    30.3060 hc         1 IQ4       0.079950
     57 H14         44.2950    44.9470    27.8300 ha         1 IQ4       0.127500
     58 H15         29.5760    29.5860    40.4380 ha         1 IQ4       0.130250
     59 H16         27.2960    29.4100    41.3330 ha         1 IQ4       0.127500
     60 H17         25.2330    32.2220    41.7920 ho         1 IQ4       0.469500
     61 H18         26.8540    33.6650    40.9970 ha         1 IQ4       0.127500
     62 H19         29.1010    33.8340    40.0910 ha         1 IQ4       0.130250
     63 H20         30.2950    33.2500    38.3700 hn         1 IQ4       0.319500
     64 H21         33.2100    32.9560    34.6390 hn         1 IQ4       0.320000
     65 H22         36.0760    32.4570    34.6750 h1         1 IQ4       0.085450
     66 H23         35.0820    33.0450    33.3390 h1         1 IQ4       0.085450
     67 H24         37.7560    36.1120    30.6500 hc         1 IQ4       0.078200
     68 H25         38.6610    34.8560    31.4870 hc         1 IQ4       0.078200
     69 H26         40.2670    38.4680    31.2350 hn         1 IQ4       0.318000
     70 H27         39.7590    40.3470    30.3960 hc         1 IQ4       0.079700
     71 H28         38.6650    40.4090    29.0200 hc         1 IQ4       0.079700
     72 H29         40.9590    41.4190    28.6320 h1         1 IQ4       0.085450
     73 H30         40.4250    40.2410    27.4290 h1         1 IQ4       0.085450
     74 H31         42.1410    38.9160    27.9060 hn         1 IQ4       0.320000
     75 H32         46.0110    38.5220    29.8610 h1         1 IQ4       0.083950
     76 H33         45.2000    39.4610    31.1140 h1         1 IQ4       0.083950
     77 H34         45.3230    41.3190    29.8920 hn         1 IQ4       0.319500
     78 H35         47.6210    41.6300    26.3120 ha         1 IQ4       0.130250
     79 H36         47.7270    43.9340    25.4630 ha         1 IQ4       0.127500
     80 H37         45.4380    46.4120    26.4560 ho         1 IQ4       0.469500
     81 H38         44.2050    42.6750    28.6860 ha         1 IQ4       0.130250
@<TRIPOS>BOND
     1     1     2 1   
     2     1    22 1   
     3     1    44 1   
     4     1    45 1   
     5     2     3 1   
     6     2    46 1   
     7     2    47 1   
     8     3    23 2   
     9     3    24 1   
    10     4    25 1   
    11     4    26 1   
    12     4    48 1   
    13     4    49 1   
    14     5     6 1   
    15     5    26 1   
    16     5    50 1   
    17     6    28 1   
    18     6    51 1   
    19     6    52 1   
    20     7    28 1   
    21     7    29 1   
    22     7    53 1   
    23     7    54 1   
    24     8    29 1   
    25     8    30 2   
    26     8    31 1   
    27     9    10 1   
    28     9    33 1   
    29     9    34 2   
    30    10    35 1   
    31    10    55 1   
    32    10    56 1   
    33    11    37 1   
    34    11    39 ar  
    35    11    43 ar  
    36    12    41 ar  
    37    12    43 ar  
    38    12    57 1   
    39    13    14 ar  
    40    13    19 ar  
    41    13    58 1   
    42    14    15 ar  
    43    14    59 1   
    44    15    16 1   
    45    15    17 ar  
    46    16    60 1   
    47    17    18 ar  
    48    17    61 1   
    49    18    19 ar  
    50    18    62 1   
    51    19    20 1   
    52    20    21 2   
    53    20    22 1   
    54    22    63 1   
    55    24    25 1   
    56    24    64 1   
    57    25    65 1   
    58    25    66 1   
    59    26    27 2   
    60    28    67 1   
    61    28    68 1   
    62    29    69 1   
    63    31    32 1   
    64    31    70 1   
    65    31    71 1   
    66    32    33 1   
    67    32    72 1   
    68    32    73 1   
    69    33    74 1   
    70    35    36 1   
    71    35    75 1   
    72    35    76 1   
    73    36    37 1   
    74    36    77 1   
    75    37    38 2   
    76    39    40 ar  
    77    39    78 1   
    78    40    41 ar  
    79    40    79 1   
    80    41    42 1   
    81    42    80 1   
    82    43    81 1   
@<TRIPOS>SUBSTRUCTURE
     1 IQ4         1 TEMP              0 ****  ****    0 ROOT
