@<TRIPOS>MOLECULE
IQ5
   26    27     1     0     0
SMALL
bcc


@<TRIPOS>ATOM
      1 C4          -1.9070     2.6790     0.1200 c3         1 IQ5      -0.043800
      2 C3          -0.9080     1.5620     0.0340 ca         1 IQ5      -0.119300
      3 C2           0.4500     1.8240     0.1740 ca         1 IQ5      -0.063000
      4 C1           1.3560     0.7810     0.1100 ca         1 IQ5      -0.073100
      5 S            3.0890     0.8220     0.2610 ss         1 IQ5      -0.172100
      6 C13          3.1030    -0.9240     0.0100 cc         1 IQ5       0.645100
      7 N14          4.2710    -1.5850     0.0560 nv         1 IQ5      -0.906800
      8 N12          1.9480    -1.4780    -0.1620 nd         1 IQ5      -0.626100
      9 C11          0.9440    -0.5410    -0.1080 ca         1 IQ5       0.157400
     10 C10         -0.4110    -0.8070    -0.2650 ca         1 IQ5      -0.095000
     11 C5          -1.3250     0.2360    -0.1890 ca         1 IQ5       0.071600
     12 N6          -2.7000     0.0010    -0.3640 ns         1 IQ5      -0.489100
     13 C7          -3.4210    -1.0080     0.1890 c          1 IQ5       0.671100
     14 O8          -2.9290    -1.8810     0.8830 o          1 IQ5      -0.577100
     15 C9          -4.8980    -0.9560    -0.1060 c3         1 IQ5      -0.181100
     16 H41C        -2.4130     2.8550    -0.8330 hc         1 IQ5       0.041033
     17 H42C        -2.6810     2.4740     0.8630 hc         1 IQ5       0.041033
     18 H43C        -1.4210     3.6130     0.3990 hc         1 IQ5       0.041033
     19 H2           0.7840     2.8400     0.3470 ha         1 IQ5       0.139000
     20 H141         5.1380    -1.0890    -0.0600 hn         1 IQ5       0.433800
     21 H142         4.2720    -2.5410    -0.2610 hn         1 IQ5       0.433800
     22 H10         -0.7340    -1.8190    -0.4640 ha         1 IQ5       0.169000
     23 H6          -3.2170     0.7070    -0.8650 hn         1 IQ5       0.317500
     24 H91C        -5.1720    -0.2060    -0.8450 hc         1 IQ5       0.061700
     25 H92C        -5.2340    -1.9310    -0.4570 hc         1 IQ5       0.061700
     26 H93C        -5.4380    -0.7390     0.8170 hc         1 IQ5       0.061700
@<TRIPOS>BOND
     1     1     2 1   
     2     1    16 1   
     3     1    17 1   
     4     1    18 1   
     5     2     3 ar  
     6     2    11 ar  
     7     3     4 ar  
     8     3    19 1   
     9     4     5 1   
    10     4     9 ar  
    11     5     6 1   
    12     6     7 1   
    13     6     8 2   
    14     7    20 1   
    15     7    21 1   
    16     8     9 1   
    17     9    10 ar  
    18    10    11 ar  
    19    10    22 1   
    20    11    12 1   
    21    12    13 1   
    22    12    23 1   
    23    13    14 2   
    24    13    15 1   
    25    15    24 1   
    26    15    25 1   
    27    15    26 1   
@<TRIPOS>SUBSTRUCTURE
     1 IQ5         1 TEMP              0 ****  ****    0 ROOT
