@<TRIPOS>MOLECULE
IQ5
   26    27     1     0     0
SMALL
No Charge or Current Charge


@<TRIPOS>ATOM
      1 C4          -1.8900     2.7120     0.0610 c3         1 IQ5      -0.043800
      2 C3          -0.8890     1.5580     0.0470 ca         1 IQ5      -0.119300
      3 C2           0.4910     1.8490     0.0970 ca         1 IQ5      -0.045000
      4 C1           1.4080     0.7920     0.0850 ca         1 IQ5      -0.200000
      5 S            3.1570     0.9490     0.1410 ss         1 IQ5      -0.045200
      6 C13          3.1560    -0.8260     0.0780 cc         1 IQ5       0.645100
      7 N14          4.2830    -1.5550     0.0770 nv         1 IQ5      -1.017200
      8 N12          2.0100    -1.4850     0.0180 nd         1 IQ5      -0.626100
      9 C11          1.0020    -0.5250     0.0250 ca         1 IQ5       0.157400
     10 C10         -0.3650    -0.8330    -0.0260 ca         1 IQ5      -0.077000
     11 C5          -1.3280     0.2070    -0.0170 ca         1 IQ5      -0.021000
     12 N6          -2.7310    -0.0430    -0.0650 ns         1 IQ5      -0.163000
     13 C7          -3.4770    -1.2110    -0.1540 c          1 IQ5       0.604100
     14 O8          -3.0030    -2.3390    -0.2150 o          1 IQ5      -0.577100
     15 C9          -4.9860    -0.9820    -0.1720 c3         1 IQ5      -0.181100
     16 H41C        -2.5100     2.7080    -0.8440 hc         1 IQ5       0.041033
     17 H42C        -2.5570     2.6460     0.9290 hc         1 IQ5       0.041033
     18 H43C        -1.3890     3.6860     0.1090 hc         1 IQ5       0.041033
     19 H2           0.8430     2.8770     0.1460 ha         1 IQ5       0.121000
     20 H141         5.1360    -1.0850    -0.2050 hn         1 IQ5       0.489000
     21 H142         4.1810    -2.5200    -0.2150 hn         1 IQ5       0.489000
     22 H10         -0.6490    -1.8780    -0.0710 ha         1 IQ5       0.151000
     23 H6          -3.2930     0.7970    -0.0280 hn         1 IQ5       0.151000
     24 H91C        -5.2320    -0.2940    -0.9890 hc         1 IQ5       0.061700
     25 H92C        -5.5550    -1.9160    -0.2430 hc         1 IQ5       0.061700
     26 H93C        -5.2690    -0.4010     0.7140 hc         1 IQ5       0.061700
@<TRIPOS>BOND
     1     1     2 1   
     2     1    16 1   
     3     1    17 1   
     4     1    18 1   
     5     2     3 ar  
     6     2    11 ar  
     7     3     4 ar  
     8     3    19 1   
     9     4     5 1   
    10     4     9 ar  
    11     5     6 1   
    12     6     7 1   
    13     6     8 2   
    14     7    20 1   
    15     7    21 1   
    16     8     9 1   
    17     9    10 ar  
    18    10    11 ar  
    19    10    22 1   
    20    11    12 1   
    21    12    13 1   
    22    12    23 1   
    23    13    14 2   
    24    13    15 1   
    25    15    24 1   
    26    15    25 1   
    27    15    26 1   
@<TRIPOS>SUBSTRUCTURE
     1 IQ5         1 TEMP              0 ****  ****    0 ROOT
