@<TRIPOS>MOLECULE
IQ6
   42    45     1     0     0
SMALL
abcg2


@<TRIPOS>ATOM
      1 C1           5.3230    -0.2430    -0.9690 ca         1 IQ6      -0.192000
      2 C2           4.0140     0.1680    -0.7840 ca         1 IQ6      -0.026000
      3 C3          -0.5790     0.0040    -0.1750 ca         1 IQ6      -0.249000
      4 C4           1.1250     1.6690     0.1110 ca         1 IQ6      -0.216000
      5 C5           5.7240    -1.5120    -0.5400 ca         1 IQ6       0.357900
      6 C6           1.5190    -1.9720     0.7530 cc         1 IQ6      -0.125100
      7 C7           3.1400    -0.7170    -0.1570 ca         1 IQ6      -0.115800
      8 C8           0.7560     0.3190     0.0390 ca         1 IQ6       0.085200
      9 C9           1.7490    -0.7350     0.2020 cd         1 IQ6      -0.100400
     10 C10          3.6710    -1.9750     0.2090 ca         1 IQ6       0.364500
     11 C11         -1.5190     1.0380    -0.3120 ca         1 IQ6       0.641900
     12 C12          0.1110     2.5910    -0.0410 ca         1 IQ6       0.502000
     13 C13         -5.7390    -2.2300     0.2740 c6         1 IQ6      -0.077400
     14 C14         -4.4160    -2.2730     1.0310 c6         1 IQ6      -0.071900
     15 C15         -5.5320    -1.7630    -1.1630 c6         1 IQ6      -0.071900
     16 C16         -3.7040    -0.9260     0.9740 c6         1 IQ6      -0.094400
     17 C17         -4.8120    -0.4200    -1.2220 c6         1 IQ6      -0.094400
     18 C18         -3.4850    -0.4740    -0.4720 c6         1 IQ6       0.239500
     19 N19          4.9160    -2.3870     0.0420 nb         1 IQ6      -0.681000
     20 N20         -1.1540     2.3270    -0.2430 nb         1 IQ6      -0.756000
     21 N21          2.6620    -2.7060     0.7610 na         1 IQ6      -0.320400
     22 N22         -2.8280     0.8130    -0.5600 nu         1 IQ6      -0.930100
     23 CL1          0.5190     4.2840     0.0520 cl         1 IQ6      -0.188000
     24 H1           6.0430     0.4060    -1.4480 ha         1 IQ6       0.124000
     25 H2           3.6950     1.1440    -1.1260 ha         1 IQ6       0.127000
     26 H3          -0.8800    -1.0310    -0.2620 ha         1 IQ6       0.123000
     27 H4           2.1370     1.9800     0.3190 ha         1 IQ6       0.140000
     28 H5           6.7510    -1.8270    -0.6840 h4         1 IQ6       0.020100
     29 H6           0.6090    -2.3740     1.1680 h4         1 IQ6       0.218000
     30 H8          -6.4270    -1.5470     0.7830 hc         1 IQ6       0.042700
     31 H9          -4.5800    -2.5630     2.0720 hc         1 IQ6       0.041950
     32 H10         -3.7720    -3.0430     0.5930 hc         1 IQ6       0.041950
     33 H11         -4.9430    -2.5100    -1.7050 hc         1 IQ6       0.041950
     34 H12         -6.4900    -1.6880    -1.6820 hc         1 IQ6       0.041950
     35 H13         -4.3060    -0.1680     1.4870 hc         1 IQ6       0.048450
     36 H14         -2.7490    -0.9790     1.5050 hc         1 IQ6       0.048450
     37 H15         -4.6360    -0.1270    -2.2600 hc         1 IQ6       0.048450
     38 H16         -5.4440     0.3570    -0.7740 hc         1 IQ6       0.048450
     39 H17         -2.8540    -1.2110    -0.9810 h1         1 IQ6       0.058700
     40 H18          2.7520    -3.6370     1.1350 hn         1 IQ6       0.364000
     41 H19         -3.4170     1.6310    -0.5220 hn         1 IQ6       0.497000
     42 H7          -6.2130    -3.2140     0.2840 hc         1 IQ6       0.042700
@<TRIPOS>BOND
     1     1     2 ar  
     2     1     5 ar  
     3     1    24 1   
     4     2     7 ar  
     5     2    25 1   
     6     3     8 ar  
     7     3    11 ar  
     8     3    26 1   
     9     4     8 ar  
    10     4    12 ar  
    11     4    27 1   
    12     5    19 ar  
    13     5    28 1   
    14     6     9 2   
    15     6    21 1   
    16     6    29 1   
    17     7     9 1   
    18     7    10 ar  
    19     8     9 1   
    20    10    19 ar  
    21    10    21 1   
    22    11    20 ar  
    23    11    22 1   
    24    12    20 ar  
    25    12    23 1   
    26    13    14 1   
    27    13    15 1   
    28    13    30 1   
    29    13    42 1   
    30    14    16 1   
    31    14    31 1   
    32    14    32 1   
    33    15    17 1   
    34    15    33 1   
    35    15    34 1   
    36    16    18 1   
    37    16    35 1   
    38    16    36 1   
    39    17    18 1   
    40    17    37 1   
    41    17    38 1   
    42    18    22 1   
    43    18    39 1   
    44    21    40 1   
    45    22    41 1   
@<TRIPOS>SUBSTRUCTURE
     1 IQ6         1 TEMP              0 ****  ****    0 ROOT
