@<TRIPOS>MOLECULE
IQ6
   42    45     1     0     0
SMALL
No Charge or Current Charge


@<TRIPOS>ATOM
      1 C1           5.4730     0.0490    -0.6120 ca         1 IQ6      -0.192000
      2 C2           4.0950     0.3100    -0.5090 ca         1 IQ6      -0.026000
      3 C3          -0.5050    -0.1800    -0.3750 ca         1 IQ6      -0.249000
      4 C4           1.1000     1.5240     0.1020 ca         1 IQ6      -0.216000
      5 C5           5.9570    -1.2450    -0.3270 ca         1 IQ6       0.357900
      6 C6           1.5500    -2.2320     0.3630 cc         1 IQ6      -0.125100
      7 C7           3.2850    -0.7620    -0.0980 ca         1 IQ6      -0.115800
      8 C8           0.8260     0.1570    -0.0740 ca         1 IQ6       0.085200
      9 C9           1.8470    -0.9020     0.1000 cd         1 IQ6      -0.100400
     10 C10          3.8330    -2.0100     0.1280 ca         1 IQ6       0.364500
     11 C11         -1.4520     0.8400    -0.5160 ca         1 IQ6       0.641900
     12 C12          0.0720     2.4610    -0.0680 ca         1 IQ6       0.502000
     13 C13         -5.9250    -1.9900     0.5150 c6         1 IQ6      -0.077400
     14 C14         -4.5440    -2.0970     1.2060 c6         1 IQ6      -0.071900
     15 C15         -5.7730    -1.7330    -1.0050 c6         1 IQ6      -0.071900
     16 C16         -3.6800    -0.8400     0.9300 c6         1 IQ6      -0.094400
     17 C17         -4.9080    -0.4760    -1.2760 c6         1 IQ6      -0.094400
     18 C18         -3.5200    -0.5920    -0.5950 c6         1 IQ6       0.239500
     19 N19          5.1490    -2.2750     0.0290 nb         1 IQ6      -0.681000
     20 N20         -1.1940     2.1340    -0.3830 nb         1 IQ6      -0.756000
     21 N21          2.8020    -2.8760     0.4140 na         1 IQ6      -0.320400
     22 N22         -2.7620     0.6410    -0.8340 nu         1 IQ6      -0.930100
     23 Cl1          0.3920     4.1740     0.1580 cl         1 IQ6      -0.188000
     24 H1           6.1630     0.8290    -0.9210 ha         1 IQ6       0.124000
     25 H2           3.7020     1.2870    -0.7720 ha         1 IQ6       0.127000
     26 H3          -0.7960    -1.2120    -0.5240 ha         1 IQ6       0.123000
     27 H4           2.0720     1.8740     0.4230 ha         1 IQ6       0.140000
     28 H5           7.0210    -1.4670    -0.4050 h4         1 IQ6       0.020100
     29 H6           0.6060    -2.7420     0.5380 h4         1 IQ6       0.218000
     30 H8          -6.5060    -1.1760     0.9710 hc         1 IQ6       0.042700
     31 H9          -4.6780    -2.2260     2.2890 hc         1 IQ6       0.041950
     32 H10         -4.0180    -2.9930     0.8480 hc         1 IQ6       0.041950
     33 H11         -5.3150    -2.6090    -1.4850 hc         1 IQ6       0.041950
     34 H12         -6.7640    -1.6090    -1.4630 hc         1 IQ6       0.041950
     35 H13         -4.1440     0.0350     1.4050 hc         1 IQ6       0.048450
     36 H14         -2.6950    -0.9660     1.4000 hc         1 IQ6       0.048450
     37 H15         -4.7820    -0.3430    -2.3590 hc         1 IQ6       0.048450
     38 H16         -5.4350     0.4160    -0.9080 hc         1 IQ6       0.048450
     39 H17         -2.9970    -1.4510    -1.0420 h1         1 IQ6       0.058700
     40 H18          2.9480    -3.8590     0.6100 hn         1 IQ6       0.364000
     41 H19         -3.2670     1.5220    -0.8470 hn         1 IQ6       0.497000
     42 H7          -6.4980    -2.9130     0.6810 hc         1 IQ6       0.042700
@<TRIPOS>BOND
     1     1     2 ar  
     2     1     5 ar  
     3     1    24 1   
     4     2     7 ar  
     5     2    25 1   
     6     3     8 ar  
     7     3    11 ar  
     8     3    26 1   
     9     4     8 ar  
    10     4    12 ar  
    11     4    27 1   
    12     5    19 ar  
    13     5    28 1   
    14     6     9 2   
    15     6    21 1   
    16     6    29 1   
    17     7     9 1   
    18     7    10 ar  
    19     8     9 1   
    20    10    19 ar  
    21    10    21 1   
    22    11    20 ar  
    23    11    22 1   
    24    12    20 ar  
    25    12    23 1   
    26    13    14 1   
    27    13    15 1   
    28    13    30 1   
    29    13    42 1   
    30    14    16 1   
    31    14    31 1   
    32    14    32 1   
    33    15    17 1   
    34    15    33 1   
    35    15    34 1   
    36    16    18 1   
    37    16    35 1   
    38    16    36 1   
    39    17    18 1   
    40    17    37 1   
    41    17    38 1   
    42    18    22 1   
    43    18    39 1   
    44    21    40 1   
    45    22    41 1   
@<TRIPOS>SUBSTRUCTURE
     1 IQ6         1 TEMP              0 ****  ****    0 ROOT
