@<TRIPOS>MOLECULE
IQ7
   56    59     1     0     0
SMALL
bcc


@<TRIPOS>ATOM
      1 C1          -9.6540     2.0240    -1.1980 c3         1 IQ7       0.123700
      2 O2          -8.9280     0.8510    -0.9330 os         1 IQ7      -0.417600
      3 C3          -9.0090     0.4520     0.4130 c3         1 IQ7       0.114400
      4 C4          -8.1190    -0.7510     0.6230 c3         1 IQ7       0.102000
      5 N5          -6.7400    -0.4260     0.3340 ns         1 IQ7      -0.568900
      6 C6          -5.7010    -1.0530     0.9120 c          1 IQ7       0.681700
      7 O7          -5.8440    -1.9520     1.7320 o          1 IQ7      -0.606100
      8 C8          -4.3410    -0.5910     0.5000 ca         1 IQ7      -0.177600
      9 C9          -4.1070     0.7130     0.0250 ca         1 IQ7      -0.089000
     10 C10         -2.8430     1.1460    -0.3300 ca         1 IQ7      -0.148000
     11 C11         -1.8070     0.2280    -0.2060 ca         1 IQ7      -0.065200
     12 N12         -0.4670     0.3060    -0.4760 na         1 IQ7      -0.148300
     13 C13          0.1860     1.4490    -1.0850 c3         1 IQ7       0.044300
     14 C14          0.5790     2.5200    -0.0880 c3         1 IQ7       0.116400
     15 O15          1.5160     1.9940     0.8210 os         1 IQ7      -0.442600
     16 C16          1.9190     2.9120     1.8150 c3         1 IQ7       0.124700
     17 C17          0.0620    -0.9180    -0.1540 cc         1 IQ7       0.514400
     18 N18         -0.8330    -1.7640     0.2850 nd         1 IQ7      -0.547100
     19 C19         -2.0180    -1.0780     0.2630 ca         1 IQ7       0.061400
     20 C20         -3.2920    -1.4910     0.6340 ca         1 IQ7      -0.003000
     21 C21          1.4560    -1.2710    -0.3080 cc         1 IQ7      -0.268500
     22 C22          2.0250    -2.4740    -0.6550 cd         1 IQ7       0.365200
     23 N23          3.3730    -2.3690    -0.6520 nd         1 IQ7      -0.677000
     24 C24          3.6430    -1.1270    -0.3020 cc         1 IQ7       0.465000
     25 N25          2.5100    -0.4290    -0.0900 na         1 IQ7      -0.282900
     26 C26          4.9800    -0.5640    -0.1540 ca         1 IQ7      -0.117500
     27 C27          6.0880    -1.4110    -0.1930 ca         1 IQ7      -0.100500
     28 C28          7.3710    -0.9100    -0.0570 ca         1 IQ7      -0.124500
     29 C29          7.5510     0.4540     0.1200 ca         1 IQ7       0.033400
     30 CL30         9.1530     1.0880     0.2900 cl         1 IQ7      -0.107400
     31 C31          6.4680     1.3170     0.1590 ca         1 IQ7      -0.124500
     32 C32          5.1890     0.8040     0.0190 ca         1 IQ7      -0.100500
     33 H11C        -9.5500     2.2520    -2.2580 h1         1 IQ7       0.030033
     34 H12C       -10.7200     1.9050    -0.9730 h1         1 IQ7       0.030033
     35 H13C        -9.2800     2.8770    -0.6210 h1         1 IQ7       0.030033
     36 H31C        -8.6960     1.2660     1.0830 h1         1 IQ7       0.032200
     37 H32C       -10.0390     0.1850     0.6850 h1         1 IQ7       0.032200
     38 H41C        -8.2030    -1.0660     1.6620 h1         1 IQ7       0.062200
     39 H42C        -8.4640    -1.5870     0.0050 h1         1 IQ7       0.062200
     40 H5          -6.5730     0.1650    -0.4650 hn         1 IQ7       0.324500
     41 H9          -4.9200     1.4240    -0.0370 ha         1 IQ7       0.132000
     42 H20         -3.4610    -2.4930     1.0050 ha         1 IQ7       0.172000
     43 H10         -2.6850     2.1590    -0.6750 ha         1 IQ7       0.133000
     44 H131         1.0500     1.1050    -1.6530 h1         1 IQ7       0.074200
     45 H132        -0.4980     1.8880    -1.8110 h1         1 IQ7       0.074200
     46 H141         0.9970     3.3690    -0.6430 h1         1 IQ7       0.041700
     47 H142        -0.3070     2.8840     0.4480 h1         1 IQ7       0.041700
     48 H161         2.4320     3.7760     1.3820 h1         1 IQ7       0.040367
     49 H162         1.0610     3.2690     2.3930 h1         1 IQ7       0.040367
     50 H163         2.6030     2.3950     2.4850 h1         1 IQ7       0.040367
     51 H22          1.5160    -3.3870    -0.9210 h4         1 IQ7       0.053100
     52 H25          2.4080     0.5170     0.2810 hn         1 IQ7       0.336700
     53 H27          5.9460    -2.4750    -0.3260 ha         1 IQ7       0.146000
     54 H32          4.3610     1.5010     0.0330 ha         1 IQ7       0.146000
     55 H28          8.2200    -1.5790    -0.0870 ha         1 IQ7       0.149000
     56 H31          6.6130     2.3800     0.2890 ha         1 IQ7       0.149000
@<TRIPOS>BOND
     1     1     2 1   
     2     1    33 1   
     3     1    34 1   
     4     1    35 1   
     5     2     3 1   
     6     3     4 1   
     7     3    36 1   
     8     3    37 1   
     9     4     5 1   
    10     4    38 1   
    11     4    39 1   
    12     5     6 1   
    13     5    40 1   
    14     6     7 2   
    15     6     8 1   
    16     8     9 ar  
    17     8    20 ar  
    18     9    10 ar  
    19     9    41 1   
    20    10    11 ar  
    21    10    43 1   
    22    11    12 1   
    23    11    19 ar  
    24    12    13 1   
    25    12    17 1   
    26    13    14 1   
    27    13    44 1   
    28    13    45 1   
    29    14    15 1   
    30    14    46 1   
    31    14    47 1   
    32    15    16 1   
    33    16    48 1   
    34    16    49 1   
    35    16    50 1   
    36    17    18 2   
    37    17    21 1   
    38    18    19 1   
    39    19    20 ar  
    40    20    42 1   
    41    21    22 2   
    42    21    25 1   
    43    22    23 1   
    44    22    51 1   
    45    23    24 2   
    46    24    25 1   
    47    24    26 1   
    48    25    52 1   
    49    26    27 ar  
    50    26    32 ar  
    51    27    28 ar  
    52    27    53 1   
    53    28    29 ar  
    54    28    55 1   
    55    29    30 1   
    56    29    31 ar  
    57    31    32 ar  
    58    31    56 1   
    59    32    54 1   
@<TRIPOS>SUBSTRUCTURE
     1 IQ7         1 TEMP              0 ****  ****    0 ROOT
