@<TRIPOS>MOLECULE
IQ7
   56    59     1     0     0
SMALL
No Charge or Current Charge


@<TRIPOS>ATOM
      1 C1          -9.1440     1.9440     2.0520 c3         1 IQ7       0.146900
      2 O2          -8.6810     1.4280     0.7930 os         1 IQ7      -0.464000
      3 C3          -8.9470     0.0260     0.5880 c3         1 IQ7       0.137600
      4 C4          -8.3820    -0.3850    -0.7920 c3         1 IQ7       0.102000
      5 N5          -6.9270    -0.2030    -0.9010 ns         1 IQ7      -0.501900
      6 C6          -5.9890    -1.0220    -0.3140 c          1 IQ7       0.614700
      7 O7          -6.3200    -2.0240     0.3050 o          1 IQ7      -0.606100
      8 C8          -4.5400    -0.6220    -0.4770 ca         1 IQ7      -0.177600
      9 C9          -4.1470     0.5440    -1.1980 ca         1 IQ7      -0.071000
     10 C10         -2.7850     0.8850    -1.3300 ca         1 IQ7      -0.130000
     11 C11         -1.8370     0.0430    -0.7330 ca         1 IQ7      -0.065200
     12 N12         -0.4720     0.1170    -0.7030 na         1 IQ7      -0.177600
     13 C13          0.2750     0.9510    -1.6740 c3         1 IQ7       0.073600
     14 C14          0.6340     2.3630    -1.1640 c3         1 IQ7       0.139600
     15 O15          1.7510     2.2570    -0.2640 os         1 IQ7      -0.489000
     16 C16          2.1780     3.5060     0.3080 c3         1 IQ7       0.147900
     17 C17         -0.0360    -0.9700     0.0810 cc         1 IQ7       0.514400
     18 N18         -1.0750    -1.7300     0.4790 nd         1 IQ7      -0.547100
     19 C19         -2.1890    -1.0730    -0.0330 ca         1 IQ7       0.061400
     20 C20         -3.5360    -1.4350     0.1120 ca         1 IQ7       0.015000
     21 C21          1.3440    -1.2190     0.4050 cc         1 IQ7      -0.253900
     22 C22          1.8070    -2.3100     1.0850 cd         1 IQ7       0.299900
     23 N23          3.1770    -2.2030     1.2470 nd         1 IQ7      -0.677000
     24 C24          3.5350    -1.0500     0.6910 cc         1 IQ7       0.465000
     25 N25          2.4370    -0.4110     0.1710 na         1 IQ7      -0.282500
     26 C26          4.9030    -0.5070     0.6580 ca         1 IQ7      -0.117500
     27 C27          5.9660    -1.2120     1.2700 ca         1 IQ7      -0.082500
     28 C28          7.2760    -0.7000     1.2430 ca         1 IQ7      -0.106500
     29 C29          7.5410     0.5200     0.6050 ca         1 IQ7       0.125000
     30 Cl30         9.1790     1.1590     0.5730 cl         1 IQ7      -0.199000
     31 C31          6.4990     1.2300    -0.0090 ca         1 IQ7      -0.106500
     32 C32          5.1880     0.7220     0.0150 ca         1 IQ7      -0.082500
     33 H11C        -8.9090     3.0120     2.1370 h1         1 IQ7       0.030033
     34 H12C       -10.2320     1.8250     2.1470 h1         1 IQ7       0.030033
     35 H13C        -8.6630     1.4200     2.8890 h1         1 IQ7       0.030033
     36 H31C        -8.4760    -0.5790     1.3730 h1         1 IQ7       0.032200
     37 H32C       -10.0270    -0.1690     0.6060 h1         1 IQ7       0.032200
     38 H41C        -8.6250    -1.4390    -0.9790 h1         1 IQ7       0.062200
     39 H42C        -8.8720     0.2110    -1.5730 h1         1 IQ7       0.062200
     40 H5          -6.5820     0.6190    -1.3780 hn         1 IQ7       0.324500
     41 H9          -4.8830     1.1960    -1.6610 ha         1 IQ7       0.114000
     42 H20         -3.7930    -2.3300     0.6740 ha         1 IQ7       0.154000
     43 H10         -2.4890     1.7760    -1.8770 ha         1 IQ7       0.115000
     44 H131         1.1840     0.4270    -1.9940 h1         1 IQ7       0.074200
     45 H132        -0.3410     1.0620    -2.5740 h1         1 IQ7       0.074200
     46 H141         0.9000     2.9940    -2.0230 h1         1 IQ7       0.041700
     47 H142        -0.2380     2.8090    -0.6680 h1         1 IQ7       0.041700
     48 H161         2.4890     4.2090    -0.4760 h1         1 IQ7       0.040367
     49 H162         1.3680     3.9680     0.8870 h1         1 IQ7       0.040367
     50 H163         3.0300     3.3460     0.9810 h1         1 IQ7       0.040367
     51 H22          1.2470    -3.1590     1.4600 h4         1 IQ7       0.053100
     52 H25          2.4310     0.5320    -0.2070 hn         1 IQ7       0.387000
     53 H27          5.7810    -2.1600     1.7700 ha         1 IQ7       0.128000
     54 H32          4.4020     1.2940    -0.4730 ha         1 IQ7       0.128000
     55 H28          8.0850    -1.2500     1.7180 ha         1 IQ7       0.131000
     56 H31          6.7070     2.1750    -0.5050 ha         1 IQ7       0.131000
@<TRIPOS>BOND
     1     1     2 1   
     2     1    33 1   
     3     1    34 1   
     4     1    35 1   
     5     2     3 1   
     6     3     4 1   
     7     3    36 1   
     8     3    37 1   
     9     4     5 1   
    10     4    38 1   
    11     4    39 1   
    12     5     6 1   
    13     5    40 1   
    14     6     7 2   
    15     6     8 1   
    16     8     9 ar  
    17     8    20 ar  
    18     9    10 ar  
    19     9    41 1   
    20    10    11 ar  
    21    10    43 1   
    22    11    12 1   
    23    11    19 ar  
    24    12    13 1   
    25    12    17 1   
    26    13    14 1   
    27    13    44 1   
    28    13    45 1   
    29    14    15 1   
    30    14    46 1   
    31    14    47 1   
    32    15    16 1   
    33    16    48 1   
    34    16    49 1   
    35    16    50 1   
    36    17    18 2   
    37    17    21 1   
    38    18    19 1   
    39    19    20 ar  
    40    20    42 1   
    41    21    22 2   
    42    21    25 1   
    43    22    23 1   
    44    22    51 1   
    45    23    24 2   
    46    24    25 1   
    47    24    26 1   
    48    25    52 1   
    49    26    27 ar  
    50    26    32 ar  
    51    27    28 ar  
    52    27    53 1   
    53    28    29 ar  
    54    28    55 1   
    55    29    30 1   
    56    29    31 ar  
    57    31    32 ar  
    58    31    56 1   
    59    32    54 1   
@<TRIPOS>SUBSTRUCTURE
     1 IQ7         1 TEMP              0 ****  ****    0 ROOT
