@<TRIPOS>MOLECULE
IQ8
   37    38     1     0     0
SMALL
No Charge or Current Charge


@<TRIPOS>ATOM
      1 C20        -26.3110   -12.0200    14.5220 c3         1 IQ8      -0.183100
      2 O14        -28.5810   -17.3390    15.2110 o          1 IQ8      -0.593100
      3 C13        -27.7780   -16.7870    15.9530 c          1 IQ8       0.619700
      4 N7         -28.1180   -15.6420    16.6440 ns         1 IQ8      -0.497900
      5 C8         -29.3880   -14.9200    16.4930 c3         1 IQ8       0.083000
      6 C9         -29.4790   -14.1200    15.1730 c3         1 IQ8       0.070000
      7 N10        -28.4440   -13.0780    15.0650 ns         1 IQ8      -0.514900
      8 C11        -27.2200   -13.2400    14.4550 c          1 IQ8       0.597100
      9 O12        -26.8860   -14.2750    13.9000 o          1 IQ8      -0.594100
     10 C3         -26.3770   -17.3250    16.1710 ca         1 IQ8      -0.126600
     11 C2         -25.9750   -18.5060    15.5100 ca         1 IQ8      -0.080500
     12 C4         -25.4430   -16.6850    17.0200 ca         1 IQ8      -0.080500
     13 C5         -24.1520   -17.2140    17.1960 ca         1 IQ8      -0.083500
     14 C6         -23.7480   -18.3920    16.5280 ca         1 IQ8      -0.115900
     15 C1         -24.6840   -19.0330    15.6870 ca         1 IQ8      -0.083500
     16 C17        -22.3680   -18.9570    16.7290 ce         1 IQ8       0.524800
     17 N18        -21.5270   -18.4090    17.5560 n2         1 IQ8      -0.575900
     18 C19        -20.1830   -19.0280    17.3680 c5         1 IQ8       0.096800
     19 S16        -21.7290   -20.1370    15.5460 ss         1 IQ8      -0.372200
     20 C15        -20.0860   -19.3750    15.8650 c5         1 IQ8       0.026600
     21 H1         -26.1820   -11.7280    15.5710 hc         1 IQ8       0.059367
     22 H2         -25.3480   -12.1820    14.0250 hc         1 IQ8       0.059367
     23 H3         -26.8420   -11.1560    14.1050 hc         1 IQ8       0.059367
     24 H4         -27.4080   -15.2410    17.2420 hn         1 IQ8       0.312500
     25 H5         -29.5020   -14.2330    17.3420 h1         1 IQ8       0.055700
     26 H6         -30.2140   -15.6430    16.5360 h1         1 IQ8       0.055700
     27 H7         -30.4640   -13.6380    15.1190 h1         1 IQ8       0.071200
     28 H8         -29.4010   -14.8070    14.3200 h1         1 IQ8       0.071200
     29 H9         -28.6220   -12.1750    15.4900 hn         1 IQ8       0.306500
     30 H10        -26.6680   -19.0270    14.8530 ha         1 IQ8       0.127500
     31 H11        -25.6970   -15.7730    17.5540 ha         1 IQ8       0.127500
     32 H12        -23.4630   -16.6930    17.8570 ha         1 IQ8       0.132000
     33 H13        -24.4260   -19.9510    15.1640 ha         1 IQ8       0.132000
     34 H14        -20.0940   -19.9320    17.9880 h1         1 IQ8       0.076200
     35 H15        -19.2670   -20.0700    15.6360 h1         1 IQ8       0.080200
     36 H16        -19.3850   -18.3370    17.6710 h1         1 IQ8       0.076200
     37 H17        -19.9700   -18.4700    15.2530 h1         1 IQ8       0.080200
@<TRIPOS>BOND
     1     1     8 1   
     2     1    21 1   
     3     1    22 1   
     4     1    23 1   
     5     2     3 2   
     6     3     4 1   
     7     3    10 1   
     8     4     5 1   
     9     4    24 1   
    10     5     6 1   
    11     5    25 1   
    12     5    26 1   
    13     6     7 1   
    14     6    27 1   
    15     6    28 1   
    16     7     8 1   
    17     7    29 1   
    18     8     9 2   
    19    10    11 ar  
    20    10    12 ar  
    21    11    15 ar  
    22    11    30 1   
    23    12    13 ar  
    24    12    31 1   
    25    13    14 ar  
    26    13    32 1   
    27    14    15 ar  
    28    14    16 1   
    29    15    33 1   
    30    16    17 2   
    31    16    19 1   
    32    17    18 1   
    33    18    20 1   
    34    18    34 1   
    35    18    36 1   
    36    19    20 1   
    37    20    35 1   
    38    20    37 1   
@<TRIPOS>SUBSTRUCTURE
     1 IQ8         1 TEMP              0 ****  ****    0 ROOT
