@<TRIPOS>MOLECULE
IQ8
   37    38     1     0     0
SMALL
abcg2


@<TRIPOS>ATOM
      1 C20        -26.4330   -12.1550    14.3780 c3         1 IQ8      -0.183100
      2 O14        -28.5060   -17.3200    15.3310 o          1 IQ8      -0.593100
      3 C13        -27.7100   -16.6930    16.0140 c          1 IQ8       0.619700
      4 N7         -28.0340   -15.5650    16.6670 ns         1 IQ8      -0.497900
      5 C8         -29.3350   -14.9470    16.5570 c3         1 IQ8       0.083000
      6 C9         -29.5250   -14.1640    15.2600 c3         1 IQ8       0.070000
      7 N10        -28.5190   -13.1450    15.0810 ns         1 IQ8      -0.514900
      8 C11        -27.3980   -13.3150    14.3540 c          1 IQ8       0.597100
      9 O12        -27.1610   -14.3290    13.7120 o          1 IQ8      -0.594100
     10 C3         -26.3000   -17.1700    16.1770 ca         1 IQ8      -0.126600
     11 C2         -25.7700   -17.9940    15.1890 ca         1 IQ8      -0.080500
     12 C4         -25.5160   -16.8630    17.2890 ca         1 IQ8      -0.080500
     13 C5         -24.2300   -17.3610    17.4030 ca         1 IQ8      -0.083500
     14 C6         -23.6970   -18.1780    16.4070 ca         1 IQ8      -0.115900
     15 C1         -24.4810   -18.4860    15.2970 ca         1 IQ8      -0.083500
     16 C17        -22.3280   -18.6960    16.5490 ce         1 IQ8       0.524800
     17 N18        -21.4960   -18.2380    17.3830 n2         1 IQ8      -0.575900
     18 C19        -20.2530   -18.9770    17.4080 c5         1 IQ8       0.096800
     19 S16        -21.8000   -20.0680    15.5480 ss         1 IQ8      -0.372200
     20 C15        -20.0960   -19.7890    16.1150 c5         1 IQ8       0.026600
     21 H1         -25.5060   -12.4730    14.8570 hc         1 IQ8       0.059367
     22 H2         -26.1860   -11.8660    13.3570 hc         1 IQ8       0.059367
     23 H3         -26.8070   -11.2800    14.9060 hc         1 IQ8       0.059367
     24 H4         -27.3040   -15.0180    17.0930 hn         1 IQ8       0.312500
     25 H5         -29.4500   -14.2790    17.4110 h1         1 IQ8       0.055700
     26 H6         -30.1130   -15.7070    16.6400 h1         1 IQ8       0.055700
     27 H7         -30.5080   -13.6900    15.2790 h1         1 IQ8       0.071200
     28 H8         -29.5060   -14.8330    14.4030 h1         1 IQ8       0.071200
     29 H9         -28.6280   -12.2910    15.6040 hn         1 IQ8       0.306500
     30 H10        -26.3650   -18.2490    14.3230 ha         1 IQ8       0.127500
     31 H11        -25.9050   -16.2570    18.0970 ha         1 IQ8       0.127500
     32 H12        -23.6410   -17.1270    18.2790 ha         1 IQ8       0.132000
     33 H13        -24.0890   -19.1070    14.5010 ha         1 IQ8       0.132000
     34 H14        -20.2680   -19.6350    18.2820 h1         1 IQ8       0.076200
     35 H15        -19.6010   -20.7430    16.2810 h1         1 IQ8       0.080200
     36 H16        -19.4120   -18.2950    17.5390 h1         1 IQ8       0.076200
     37 H17        -19.5530   -19.2380    15.3490 h1         1 IQ8       0.080200
@<TRIPOS>BOND
     1     1     8 1   
     2     1    21 1   
     3     1    22 1   
     4     1    23 1   
     5     2     3 2   
     6     3     4 1   
     7     3    10 1   
     8     4     5 1   
     9     4    24 1   
    10     5     6 1   
    11     5    25 1   
    12     5    26 1   
    13     6     7 1   
    14     6    27 1   
    15     6    28 1   
    16     7     8 1   
    17     7    29 1   
    18     8     9 2   
    19    10    11 ar  
    20    10    12 ar  
    21    11    15 ar  
    22    11    30 1   
    23    12    13 ar  
    24    12    31 1   
    25    13    14 ar  
    26    13    32 1   
    27    14    15 ar  
    28    14    16 1   
    29    15    33 1   
    30    16    17 2   
    31    16    19 1   
    32    17    18 1   
    33    18    20 1   
    34    18    34 1   
    35    18    36 1   
    36    19    20 1   
    37    20    35 1   
    38    20    37 1   
@<TRIPOS>SUBSTRUCTURE
     1 IQ8         1 TEMP              0 ****  ****    0 ROOT
