@<TRIPOS>MOLECULE
IQ9
   47    50     1     0     0
SMALL
No Charge or Current Charge


@<TRIPOS>ATOM
      1 C10         93.4690    -2.9780    13.7370 cy         1 IQ9      -0.118400
      2 C11         92.4100    -3.9830    13.1840 cy         1 IQ9       0.101500
      3 C13         92.1340    -9.3920    14.3380 c          1 IQ9       0.634700
      4 C18         93.8250   -11.4010    12.6530 cc         1 IQ9      -0.232000
      5 C19         93.9170   -10.0020    12.7150 cc         1 IQ9       0.375900
      6 C20         94.7760   -11.8240    11.7770 cd         1 IQ9      -0.164000
      7 C21         96.5190   -10.4920    10.3930 c5         1 IQ9       0.100300
      8 C22         97.9140   -10.2680    11.0370 c5         1 IQ9      -0.096900
      9 C23         96.8500   -11.7270     9.5030 c5         1 IQ9      -0.096900
     10 C24         97.7950   -12.6140    10.3790 c5         1 IQ9      -0.083400
     11 C25         98.2530   -11.6920    11.5500 c5         1 IQ9      -0.083400
     12 N1          90.4240    -8.3280    15.9470 na         1 IQ9       0.176800
     13 C2          91.4840    -8.2180    15.0290 cc         1 IQ9      -0.149600
     14 C3          91.7020    -6.8280    14.9800 cd         1 IQ9      -0.252600
     15 C4          90.7570    -6.2600    15.8690 cd         1 IQ9       0.260900
     16 N5          89.9820    -7.1350    16.4590 nc         1 IQ9      -0.518800
     17 C6          92.6810    -5.9890    14.2080 c          1 IQ9       0.662700
     18 N7          92.4580    -4.6140    14.5460 nj         1 IQ9      -0.406800
     19 O8          93.4850    -6.5080    13.4460 o          1 IQ9      -0.627100
     20 C9          93.8610    -4.1120    14.7370 cy         1 IQ9       0.101500
     21 N14         93.1570    -9.1420    13.4680 ns         1 IQ9      -0.459400
     22 O15         91.7620   -10.5370    14.5460 o          1 IQ9      -0.605100
     23 N16         94.8550    -9.5120    11.9430 nd         1 IQ9      -0.565800
     24 N17         95.4040   -10.6460    11.3520 na         1 IQ9       0.137800
     25 H1          93.0400    -2.0890    14.2130 hc         1 IQ9       0.063700
     26 H2          94.2490    -2.6670    13.0340 hc         1 IQ9       0.063700
     27 H3          92.7630    -4.5730    12.3290 h1         1 IQ9       0.060700
     28 H4          91.4400    -3.5270    12.9540 h1         1 IQ9       0.060700
     29 H6          95.0490   -12.8150    11.4370 h4         1 IQ9       0.152000
     30 H7          96.2690    -9.6390     9.7490 h1         1 IQ9       0.085700
     31 H8          98.6470    -9.9220    10.2980 hc         1 IQ9       0.059200
     32 H9          97.8920    -9.5260    11.8430 hc         1 IQ9       0.059200
     33 H10         95.9520   -12.2620     9.1720 hc         1 IQ9       0.059200
     34 H11         97.3690   -11.4070     8.5910 hc         1 IQ9       0.059200
     35 H12         97.2840   -13.5070    10.7570 hc         1 IQ9       0.046950
     36 H13         98.6490   -12.9700     9.7910 hc         1 IQ9       0.046950
     37 H14         99.3190   -11.8070    11.7780 hc         1 IQ9       0.046950
     38 H15         97.7040   -11.9220    12.4710 hc         1 IQ9       0.046950
     39 H16         90.6050    -5.2150    16.1100 h4         1 IQ9       0.042100
     40 H17         94.0580    -3.7600    15.7550 h1         1 IQ9       0.060700
     41 H18         94.6880    -4.7440    14.3880 h1         1 IQ9       0.060700
     42 H22         93.3860    -8.1650    13.3670 hn         1 IQ9       0.387500
     43 C12         89.7600    -9.5630    16.4030 c3         1 IQ9       0.071900
     44 H5          93.1290   -12.0280    13.1970 ha         1 IQ9       0.164000
     45 H19         88.9680    -9.3240    17.1220 h1         1 IQ9       0.069700
     46 H20         89.3170   -10.0790    15.5430 h1         1 IQ9       0.069700
     47 H21         90.4950   -10.2180    16.8860 h1         1 IQ9       0.069700
@<TRIPOS>BOND
     1     1     2 1   
     2     1    20 1   
     3     1    25 1   
     4     1    26 1   
     5     2    18 1   
     6     2    27 1   
     7     2    28 1   
     8     3    13 1   
     9     3    21 1   
    10     3    22 2   
    11     4     5 1   
    12     4     6 2   
    13     4    44 1   
    14     5    21 1   
    15     5    23 2   
    16     6    24 1   
    17     6    29 1   
    18     7     8 1   
    19     7     9 1   
    20     7    24 1   
    21     7    30 1   
    22     8    11 1   
    23     8    31 1   
    24     8    32 1   
    25     9    10 1   
    26     9    33 1   
    27     9    34 1   
    28    10    11 1   
    29    10    35 1   
    30    10    36 1   
    31    11    37 1   
    32    11    38 1   
    33    12    13 1   
    34    12    16 1   
    35    12    43 1   
    36    13    14 2   
    37    14    15 1   
    38    14    17 1   
    39    15    16 2   
    40    15    39 1   
    41    17    18 1   
    42    17    19 2   
    43    18    20 1   
    44    20    40 1   
    45    20    41 1   
    46    21    42 1   
    47    23    24 1   
    48    43    45 1   
    49    43    46 1   
    50    43    47 1   
@<TRIPOS>SUBSTRUCTURE
     1 IQ9         1 TEMP              0 ****  ****    0 ROOT
