@<TRIPOS>MOLECULE
IQ9
   47    50     1     0     0
SMALL
bcc


@<TRIPOS>ATOM
      1 C10         92.5020    -2.8570    13.3920 cy         1 IQ9      -0.118400
      2 C11         91.7010    -3.8880    14.2110 cy         1 IQ9       0.101500
      3 C13         92.1830    -9.2140    14.0380 c          1 IQ9       0.701700
      4 C18         93.6680   -11.1260    12.1120 cc         1 IQ9      -0.315300
      5 C19         94.0820    -9.9170    12.7010 cc         1 IQ9       0.441200
      6 C20         94.7270   -11.4690    11.3020 cd         1 IQ9      -0.131300
      7 C21         96.9990   -10.4410    10.8570 c5         1 IQ9       0.071000
      8 C22         98.0480   -10.9470    11.8480 c5         1 IQ9      -0.096900
      9 C23         97.1770   -11.3820     9.6650 c5         1 IQ9      -0.096900
     10 C24         97.6500   -12.7330    10.2470 c5         1 IQ9      -0.083400
     11 C25         97.9540   -12.4680    11.7340 c5         1 IQ9      -0.083400
     12 N1          90.6990    -8.3620    15.8160 na         1 IQ9       0.155400
     13 C2          91.7170    -8.1390    14.9580 cc         1 IQ9      -0.098900
     14 C3          92.0570    -6.7930    15.1070 cd         1 IQ9      -0.317900
     15 C4          91.1710    -6.3230    16.0860 cd         1 IQ9       0.326200
     16 N5          90.3740    -7.2800    16.5080 nc         1 IQ9      -0.518800
     17 C6          93.1310    -6.0220    14.4530 c          1 IQ9       0.729700
     18 N7          92.8970    -4.7310    14.2420 nj         1 IQ9      -0.473800
     19 O8          94.2140    -6.5290    14.1360 o          1 IQ9      -0.627100
     20 C9          93.7280    -3.7850    13.5070 cy         1 IQ9       0.101500
     21 N14         93.4480    -9.0790    13.6080 ns         1 IQ9      -0.526400
     22 O15         91.4430   -10.1350    13.7320 o          1 IQ9      -0.605100
     23 N16         95.2860    -9.5650    12.2870 nd         1 IQ9      -0.565800
     24 N17         95.6610   -10.5140    11.4310 na         1 IQ9       0.116400
     25 H1          92.6120    -1.8860    13.8680 hc         1 IQ9       0.063700
     26 H2          92.1430    -2.7190    12.3750 hc         1 IQ9       0.063700
     27 H3          90.8510    -4.3490    13.7070 h1         1 IQ9       0.060700
     28 H4          91.3870    -3.5360    15.1930 h1         1 IQ9       0.060700
     29 H6          94.8530   -12.3220    10.6560 h4         1 IQ9       0.170000
     30 H7          97.1550    -9.3990    10.5800 h1         1 IQ9       0.085700
     31 H8          99.0280   -10.5980    11.5120 hc         1 IQ9       0.059200
     32 H9          97.8950   -10.5670    12.8600 hc         1 IQ9       0.059200
     33 H10         96.2840   -11.4590     9.0440 hc         1 IQ9       0.059200
     34 H11         97.9530   -10.9540     9.0320 hc         1 IQ9       0.059200
     35 H12         96.9000   -13.5150    10.1250 hc         1 IQ9       0.046950
     36 H13         98.5420   -13.0760     9.7210 hc         1 IQ9       0.046950
     37 H14         98.8630   -12.9650    12.0710 hc         1 IQ9       0.046950
     38 H15         97.1410   -12.8390    12.3630 hc         1 IQ9       0.046950
     39 H16         91.1090    -5.3380    16.5230 h4         1 IQ9       0.042100
     40 H17         94.5600    -3.3930    14.0940 h1         1 IQ9       0.060700
     41 H18         94.1120    -4.1810    12.5670 h1         1 IQ9       0.060700
     42 H22         93.9580    -8.2270    13.8760 hn         1 IQ9       0.387500
     43 C12         89.9660    -9.5860    16.0870 c3         1 IQ9       0.042600
     44 H5          92.7490   -11.6670    12.2410 ha         1 IQ9       0.182000
     45 H19         89.4290    -9.4300    17.0170 h1         1 IQ9       0.069700
     46 H20         89.2570    -9.8010    15.2920 h1         1 IQ9       0.069700
     47 H21         90.6440   -10.4260    16.2030 h1         1 IQ9       0.069700
@<TRIPOS>BOND
     1     1     2 1   
     2     1    20 1   
     3     1    25 1   
     4     1    26 1   
     5     2    18 1   
     6     2    27 1   
     7     2    28 1   
     8     3    13 1   
     9     3    21 1   
    10     3    22 2   
    11     4     5 1   
    12     4     6 2   
    13     4    44 1   
    14     5    21 1   
    15     5    23 2   
    16     6    24 1   
    17     6    29 1   
    18     7     8 1   
    19     7     9 1   
    20     7    24 1   
    21     7    30 1   
    22     8    11 1   
    23     8    31 1   
    24     8    32 1   
    25     9    10 1   
    26     9    33 1   
    27     9    34 1   
    28    10    11 1   
    29    10    35 1   
    30    10    36 1   
    31    11    37 1   
    32    11    38 1   
    33    12    13 1   
    34    12    16 1   
    35    12    43 1   
    36    13    14 2   
    37    14    15 1   
    38    14    17 1   
    39    15    16 2   
    40    15    39 1   
    41    17    18 1   
    42    17    19 2   
    43    18    20 1   
    44    20    40 1   
    45    20    41 1   
    46    21    42 1   
    47    23    24 1   
    48    43    45 1   
    49    43    46 1   
    50    43    47 1   
@<TRIPOS>SUBSTRUCTURE
     1 IQ9         1 TEMP              0 ****  ****    0 ROOT
