@<TRIPOS>MOLECULE
IQA
   33    36     1     0     0
SMALL
abcg2


@<TRIPOS>ATOM
      1 O21          2.4690     0.5490     4.0980 o          1 IQA      -0.710000
      2 C20          2.2840     0.0840     2.9680 c          1 IQA       0.725000
      3 O22          3.0590     0.2350     1.9820 o          1 IQA      -0.710000
      4 C18          1.0390    -0.7980     2.7450 c3         1 IQA      -0.138200
      5 C5           0.1640    -0.4470     1.5790 cc         1 IQA      -0.145400
      6 C8           0.5210    -0.2420     0.2800 cd         1 IQA       0.110500
      7 N11          1.7820    -0.2000    -0.2420 ns         1 IQA      -0.403100
      8 C10          2.0650     0.0470    -1.5380 c          1 IQA       0.577600
      9 O19          3.2130     0.1630    -1.9420 o          1 IQA      -0.568000
     10 C12          0.8860     0.1470    -2.4220 ca         1 IQA      -0.197600
     11 C17          1.0920     0.2860    -3.7920 ca         1 IQA      -0.032000
     12 C16          0.0280     0.3550    -4.6690 ca         1 IQA      -0.166000
     13 C15         -1.2630     0.2680    -4.1630 ca         1 IQA      -0.074000
     14 C14         -1.4940     0.1340    -2.8050 ca         1 IQA      -0.169000
     15 C13         -0.4230     0.0880    -1.9110 ca         1 IQA       0.088800
     16 N9          -0.5810    -0.0360    -0.5350 na         1 IQA      -0.013500
     17 C7          -1.7130    -0.0670     0.2800 ca         1 IQA      -0.053200
     18 C6          -1.2620    -0.3340     1.5940 ca         1 IQA      -0.043800
     19 C4          -2.1870    -0.4250     2.6360 ca         1 IQA      -0.077000
     20 C1          -3.5300    -0.2350     2.3680 ca         1 IQA      -0.137000
     21 C2          -3.9600     0.0550     1.0710 ca         1 IQA      -0.134000
     22 C3          -3.0620     0.1460     0.0180 ca         1 IQA      -0.114000
     23 H181         1.3950    -1.8300     2.6350 hc         1 IQA       0.036200
     24 H182         0.4320    -0.7900     3.6510 hc         1 IQA       0.036200
     25 H11          2.5060    -0.1310     0.5210 hn         1 IQA       0.432500
     26 H17          2.1070     0.3350    -4.1610 ha         1 IQA       0.134000
     27 H16          0.1960     0.4610    -5.7320 ha         1 IQA       0.108000
     28 H15         -2.1120     0.2990    -4.8330 ha         1 IQA       0.101000
     29 H14         -2.5120     0.0430    -2.4730 ha         1 IQA       0.120000
     30 H4          -1.8560    -0.6360     3.6450 ha         1 IQA       0.120000
     31 H1          -4.2540    -0.3020     3.1690 ha         1 IQA       0.097000
     32 H2          -5.0110     0.2190     0.8770 ha         1 IQA       0.094000
     33 H3          -3.4440     0.4020    -0.9570 ha         1 IQA       0.102000
@<TRIPOS>BOND
     1     1     2 1   
     2     2     3 1   
     3     2     4 1   
     4     4     5 1   
     5     4    23 1   
     6     4    24 1   
     7     5     6 2   
     8     5    18 1   
     9     6     7 1   
    10     6    16 1   
    11     7     8 1   
    12     7    25 1   
    13     8     9 2   
    14     8    10 1   
    15    10    11 ar  
    16    10    15 ar  
    17    11    12 ar  
    18    11    26 1   
    19    12    13 ar  
    20    12    27 1   
    21    13    14 ar  
    22    13    28 1   
    23    14    15 ar  
    24    14    29 1   
    25    15    16 1   
    26    16    17 1   
    27    17    18 ar  
    28    17    22 ar  
    29    18    19 ar  
    30    19    20 ar  
    31    19    30 1   
    32    20    21 ar  
    33    20    31 1   
    34    21    22 ar  
    35    21    32 1   
    36    22    33 1   
@<TRIPOS>SUBSTRUCTURE
     1 IQA         1 TEMP              0 ****  ****    0 ROOT
