@<TRIPOS>MOLECULE
IQB
   47    49     1     0     0
SMALL
abcg2


@<TRIPOS>ATOM
      1 C1          -0.0070     0.9280     5.4250 ca         1 IQB      -0.305500
      2 C2          -0.5670     2.1530     5.1680 ca         1 IQB       0.029000
      3 C3          -1.9440     2.3720     5.3560 ca         1 IQB      -0.143000
      4 C4          -2.7420     1.3510     5.7830 ca         1 IQB      -0.022000
      5 C5          -2.1900     0.0790     6.0470 ca         1 IQB      -0.124000
      6 C6          -3.0090    -0.9890     6.4810 ca         1 IQB       0.376900
      7 N7          -2.5690    -2.1880     6.7400 nb         1 IQB      -0.664000
      8 C8          -1.2470    -2.4110     6.5880 ca         1 IQB       0.352900
      9 C9          -0.3490    -1.4640     6.1780 ca         1 IQB      -0.181000
     10 C10         -0.8030    -0.1590     5.8820 ca         1 IQB       0.069000
     11 S            1.7330     0.7310     5.1070 sy         1 IQB       1.157600
     12 O1           2.3570     0.0730     6.2420 o          1 IQB      -0.532000
     13 O2           2.2360     2.0200     4.6640 o          1 IQB      -0.532000
     14 N1           1.8590    -0.3030     3.8380 n7         1 IQB      -0.876300
     15 C12          1.2120     0.0410     2.5750 c3         1 IQB       0.198800
     16 C13          1.7750    -0.8340     1.4660 c3         1 IQB       0.155800
     17 N4           1.1430    -0.4960     0.2080 n7         1 IQB      -0.865400
     18 C15          1.5220    -1.3900    -0.8730 c3         1 IQB       0.193000
     19 C16          0.7740    -1.0540    -2.1210 c2         1 IQB      -0.202200
     20 C7           1.3610    -0.8440    -3.3000 ce         1 IQB      -0.164200
     21 C11          0.6980    -0.5430    -4.5710 ca         1 IQB      -0.038800
     22 C2B          1.4790    -0.3910    -5.7180 ca         1 IQB      -0.100500
     23 C3B          0.9130    -0.1100    -6.9530 ca         1 IQB      -0.084500
     24 C14         -0.4620     0.0250    -7.0460 ca         1 IQB      -0.015900
     25 BR4         -1.2530     0.4070    -8.7180 br         1 IQB      -0.097100
     26 C5B         -1.2690    -0.1180    -5.9240 ca         1 IQB      -0.084500
     27 C6B         -0.6870    -0.4000    -4.7010 ca         1 IQB      -0.100500
     28 H2           0.0450     2.9710     4.8170 ha         1 IQB       0.146000
     29 H3          -2.3560     3.3500     5.1500 ha         1 IQB       0.127000
     30 H4          -3.8050     1.5010     5.9250 ha         1 IQB       0.122000
     31 H6          -4.0730    -0.8090     6.6080 h4         1 IQB       0.021100
     32 H8          -0.9040    -3.4120     6.8170 h4         1 IQB       0.025100
     33 H9           0.6920    -1.7420     6.1200 ha         1 IQB       0.134000
     34 HN1          1.7480    -1.2740     4.1130 hn         1 IQB       0.484000
     35 H2'1         1.4210     1.0890     2.3560 h1         1 IQB       0.060200
     36 H2'2         0.1260    -0.0820     2.6260 h1         1 IQB       0.060200
     37 H3'1         1.5550    -1.8830     1.6870 h1         1 IQB       0.042200
     38 H3'2         2.8700    -0.7370     1.4480 h1         1 IQB       0.042200
     39 HN4          1.4000     0.4500    -0.0490 hn         1 IQB       0.414000
     40 H5'1         1.2560    -2.4080    -0.5670 h1         1 IQB       0.038700
     41 H5'2         2.6040    -1.3990    -1.0720 h1         1 IQB       0.038700
     42 H11         -0.3060    -0.9990    -2.0180 ha         1 IQB       0.184000
     43 H7           2.4450    -0.9030    -3.3530 ha         1 IQB       0.171000
     44 H1           2.5550    -0.4940    -5.6480 ha         1 IQB       0.117000
     45 H10          1.5490     0.0000    -7.8220 ha         1 IQB       0.129500
     46 H5          -2.3430    -0.0130    -5.9930 ha         1 IQB       0.129500
     47 H6B         -1.3340    -0.5050    -3.8400 ha         1 IQB       0.117000
@<TRIPOS>BOND
     1     1     2 ar  
     2     1    10 ar  
     3     1    11 1   
     4     2     3 ar  
     5     2    28 1   
     6     3     4 ar  
     7     3    29 1   
     8     4     5 ar  
     9     4    30 1   
    10     5     6 ar  
    11     5    10 ar  
    12     6     7 ar  
    13     6    31 1   
    14     7     8 ar  
    15     8     9 ar  
    16     8    32 1   
    17     9    10 ar  
    18     9    33 1   
    19    11    12 2   
    20    11    13 2   
    21    11    14 1   
    22    14    15 1   
    23    14    34 1   
    24    15    16 1   
    25    15    35 1   
    26    15    36 1   
    27    16    17 1   
    28    16    37 1   
    29    16    38 1   
    30    17    18 1   
    31    17    39 1   
    32    18    19 1   
    33    18    40 1   
    34    18    41 1   
    35    19    20 2   
    36    19    42 1   
    37    20    21 1   
    38    20    43 1   
    39    21    22 ar  
    40    21    27 ar  
    41    22    23 ar  
    42    22    44 1   
    43    23    24 ar  
    44    23    45 1   
    45    24    25 1   
    46    24    26 ar  
    47    26    27 ar  
    48    26    46 1   
    49    27    47 1   
@<TRIPOS>SUBSTRUCTURE
     1 IQB         1 TEMP              0 ****  ****    0 ROOT
