@<TRIPOS>MOLECULE
IQB
   47    49     1     0     0
SMALL
No Charge or Current Charge


@<TRIPOS>ATOM
      1 C1           0.1910     0.8910     5.1630 ca         1 IQB      -0.305500
      2 C2          -0.0140     2.2670     4.9090 ca         1 IQB       0.029000
      3 C3          -1.2920     2.7630     4.6130 ca         1 IQB      -0.143000
      4 C4          -2.3900     1.8970     4.5670 ca         1 IQB      -0.022000
      5 C5          -2.2080     0.5250     4.8070 ca         1 IQB      -0.124000
      6 C6          -3.3150    -0.3430     4.7490 ca         1 IQB       0.376900
      7 N7          -3.2270    -1.6750     4.9510 nb         1 IQB      -0.664000
      8 C8          -2.0050    -2.1820     5.2160 ca         1 IQB       0.352900
      9 C9          -0.8460    -1.3940     5.2950 ca         1 IQB      -0.181000
     10 C10         -0.9250     0.0040     5.1010 ca         1 IQB       0.069000
     11 S            1.8880     0.3920     5.5800 sy         1 IQB       1.157600
     12 O1           1.8550    -0.7000     6.5520 o          1 IQB      -0.532000
     13 O2           2.7350     1.5710     5.7800 o          1 IQB      -0.532000
     14 N1           2.4470    -0.3250     4.1780 n7         1 IQB      -0.876300
     15 C12          1.6100    -0.3290     2.9570 c3         1 IQB       0.198800
     16 C13          2.3670    -0.9770     1.7670 c3         1 IQB       0.155800
     17 N4           1.5460    -0.9930     0.5330 n7         1 IQB      -0.865400
     18 C15          2.1740    -1.6360    -0.6270 c3         1 IQB       0.193000
     19 C16          1.2290    -1.5190    -1.7950 c2         1 IQB      -0.202200
     20 C7           1.2620    -0.5490    -2.7380 ce         1 IQB      -0.164200
     21 C11          0.3380    -0.4220    -3.9040 ca         1 IQB      -0.038800
     22 C2B          0.6680     0.4730    -4.9430 ca         1 IQB      -0.100500
     23 C3B         -0.1770     0.6220    -6.0560 ca         1 IQB      -0.084500
     24 C14         -1.3640    -0.1220    -6.1390 ca         1 IQB      -0.015900
     25 Br4         -2.5160     0.0810    -7.6520 br         1 IQB      -0.097100
     26 C5B         -1.7080    -1.0120    -5.1090 ca         1 IQB      -0.084500
     27 C6B         -0.8620    -1.1610    -3.9950 ca         1 IQB      -0.100500
     28 H2           0.8160     2.9720     4.9420 ha         1 IQB       0.146000
     29 H3          -1.4310     3.8250     4.4230 ha         1 IQB       0.127000
     30 H4          -3.3790     2.2910     4.3400 ha         1 IQB       0.122000
     31 H6          -4.3110     0.0400     4.5280 h4         1 IQB       0.021100
     32 H8          -1.9510    -3.2600     5.3640 h4         1 IQB       0.025100
     33 H9           0.0860    -1.9080     5.4900 ha         1 IQB       0.134000
     34 HN1          2.5990    -1.2790     4.5020 hn         1 IQB       0.484000
     35 H2'1         1.3420     0.6980     2.6730 h1         1 IQB       0.060200
     36 H2'2         0.6790    -0.8880     3.1130 h1         1 IQB       0.060200
     37 H3'1         2.6450    -2.0030     2.0470 h1         1 IQB       0.042200
     38 H3'2         3.2990    -0.4190     1.5970 h1         1 IQB       0.042200
     39 HN4          1.3350    -0.0230     0.2690 hn         1 IQB       0.414000
     40 H5'1         2.3800    -2.6960    -0.4210 h1         1 IQB       0.038700
     41 H5'2         3.1300    -1.1500    -0.8720 h1         1 IQB       0.038700
     42 H11          0.4920    -2.3200    -1.8240 ha         1 IQB       0.184000
     43 H7           2.0290     0.2260    -2.6810 ha         1 IQB       0.171000
     44 H1           1.5860     1.0540    -4.8910 ha         1 IQB       0.117000
     45 H10          0.0900     1.3130    -6.8530 ha         1 IQB       0.129500
     46 H5          -2.6310    -1.5850    -5.1700 ha         1 IQB       0.129500
     47 H6B         -1.1560    -1.8470    -3.2070 ha         1 IQB       0.117000
@<TRIPOS>BOND
     1     1     2 ar  
     2     1    10 ar  
     3     1    11 1   
     4     2     3 ar  
     5     2    28 1   
     6     3     4 ar  
     7     3    29 1   
     8     4     5 ar  
     9     4    30 1   
    10     5     6 ar  
    11     5    10 ar  
    12     6     7 ar  
    13     6    31 1   
    14     7     8 ar  
    15     8     9 ar  
    16     8    32 1   
    17     9    10 ar  
    18     9    33 1   
    19    11    12 2   
    20    11    13 2   
    21    11    14 1   
    22    14    15 1   
    23    14    34 1   
    24    15    16 1   
    25    15    35 1   
    26    15    36 1   
    27    16    17 1   
    28    16    37 1   
    29    16    38 1   
    30    17    18 1   
    31    17    39 1   
    32    18    19 1   
    33    18    40 1   
    34    18    41 1   
    35    19    20 2   
    36    19    42 1   
    37    20    21 1   
    38    20    43 1   
    39    21    22 ar  
    40    21    27 ar  
    41    22    23 ar  
    42    22    44 1   
    43    23    24 ar  
    44    23    45 1   
    45    24    25 1   
    46    24    26 ar  
    47    26    27 ar  
    48    26    46 1   
    49    27    47 1   
@<TRIPOS>SUBSTRUCTURE
     1 IQB         1 TEMP              0 ****  ****    0 ROOT
