@<TRIPOS>MOLECULE
IQC
   81    87     1     0     0
SMALL
No Charge or Current Charge


@<TRIPOS>ATOM
      1 C24        -27.7960    12.1640    -4.8650 ca         1 IQC      -0.074000
      2 C25        -27.3410    12.4530    -6.1680 ca         1 IQC      -0.120000
      3 C14        -24.2180     7.5700    -3.0310 ca         1 IQC      -0.063000
      4 C28        -24.2850    10.6430    -6.5680 cc         1 IQC       0.357800
      5 C13        -23.4440     8.1010    -1.9760 ca         1 IQC      -0.198000
      6 C27        -25.4280    11.0320    -5.7770 ca         1 IQC      -0.204900
      7 C22        -25.8380    10.7160    -4.4660 cp         1 IQC       0.031000
      8 C17        -25.0180     9.8110    -3.6100 cp         1 IQC      -0.044000
      9 C23        -27.0590    11.3010    -4.0120 ca         1 IQC      -0.078300
     10 C19        -23.4630     9.4920    -1.7180 ca         1 IQC       0.065000
     11 C26        -26.1460    11.8590    -6.5830 ca         1 IQC      -0.043200
     12 C18        -24.2470    10.3310    -2.5420 ca         1 IQC       0.183000
     13 C15        -24.9920     8.4150    -3.8400 ca         1 IQC       0.105000
     14 C11        -22.6480     7.2870    -1.1360 ca         1 IQC       0.437900
     15 C9         -22.0310     9.1320     0.0500 ca         1 IQC       0.427900
     16 C36        -21.1580    -2.0770    -2.0510 c3         1 IQC      -0.076100
     17 C35        -20.1520    -1.0090    -1.5700 c3         1 IQC      -0.152400
     18 C1         -19.7270     9.8390     2.9780 c6         1 IQC      -0.096900
     19 C3         -21.9810     8.6940     3.2530 c6         1 IQC      -0.096900
     20 C38        -22.9630     3.5620    -0.5130 c6         1 IQC      -0.074900
     21 C40        -22.1680     3.9830    -2.8930 c6         1 IQC      -0.074900
     22 C6         -20.2960    10.8860     3.9770 c6         1 IQC       0.164300
     23 C4         -22.5860     9.9850     3.8780 c6         1 IQC       0.164300
     24 C37        -22.5030     4.9900    -0.1320 c6         1 IQC       0.216800
     25 C41        -21.7150     5.3990    -2.4610 c6         1 IQC       0.216800
     26 C42        -22.4590     1.5060    -2.0640 cy         1 IQC       0.108500
     27 C43        -20.6990     2.4990    -1.3010 cy         1 IQC       0.108500
     28 C2         -20.8180     8.9860     2.2750 c6         1 IQC       0.254500
     29 C39        -22.1320     2.9910    -1.6990 cy         1 IQC      -0.091000
     30 C31        -27.6010    11.0070    -2.6170 c3         1 IQC      -0.045800
     31 N29        -24.2980    11.1990    -7.7910 nd         1 IQC      -0.516100
     32 N20        -22.7410     9.9940    -0.6920 nb         1 IQC      -0.262000
     33 N10        -21.9440     7.8060    -0.1190 nb         1 IQC      -0.329000
     34 N30        -25.4740    11.9580    -7.7820 na         1 IQC      -0.064400
     35 N12        -22.5340     5.8930    -1.3190 nh         1 IQC      -0.783300
     36 N32        -21.2970     1.1210    -1.1860 nj         1 IQC      -0.433800
     37 N5         -21.7240    11.1920     3.7070 n3         1 IQC      -0.734600
     38 N8         -21.3210     9.7020     1.0910 nu         1 IQC      -0.898100
     39 O34        -20.0840     0.6500    -3.2450 o          1 IQC      -0.601100
     40 F21        -24.2540    11.6670    -2.3100 f          1 IQC      -0.147000
     41 Cl1        -25.9420     7.6880    -5.1350 cl         1 IQC      -0.188000
     42 H1         -28.7250    12.6100    -4.5170 ha         1 IQC       0.113000
     43 H2         -27.9030    13.1130    -6.8250 ha         1 IQC       0.120000
     44 H3         -24.2340     6.5010    -3.2260 ha         1 IQC       0.133000
     45 H4         -23.4530     9.9940    -6.3270 h4         1 IQC       0.051800
     46 H5         -20.8970    -3.0610    -1.6430 hc         1 IQC       0.041700
     47 H6         -22.1740    -1.8280    -1.7230 hc         1 IQC       0.041700
     48 H7         -21.1560    -2.1480    -3.1460 hc         1 IQC       0.041700
     49 H8         -19.1470    -1.2950    -1.9040 hc         1 IQC       0.053700
     50 H9         -20.1990    -0.9940    -0.4740 hc         1 IQC       0.053700
     51 H10        -19.0480     9.1740     3.5270 hc         1 IQC       0.053200
     52 H11        -19.1030    10.3410     2.2260 hc         1 IQC       0.053200
     53 H12        -22.7690     8.1090     2.7590 hc         1 IQC       0.053200
     54 H13        -21.6000     8.0590     4.0630 hc         1 IQC       0.053200
     55 H14        -24.0260     3.5910    -0.7880 hc         1 IQC       0.059200
     56 H15        -22.8910     2.9070     0.3660 hc         1 IQC       0.059200
     57 H16        -23.1870     4.0390    -3.2980 hc         1 IQC       0.059200
     58 H17        -21.5290     3.6270    -3.7120 hc         1 IQC       0.059200
     59 H18        -20.1900    10.4970     5.0010 h1         1 IQC       0.034950
     60 H19        -19.6840    11.7980     3.9200 h1         1 IQC       0.034950
     61 H20        -23.5640    10.1740     3.4110 h1         1 IQC       0.034950
     62 H21        -22.7790     9.7970     4.9440 h1         1 IQC       0.034950
     63 H22        -21.4860     4.9490     0.2860 h1         1 IQC       0.053700
     64 H23        -23.1670     5.3740     0.6570 h1         1 IQC       0.053700
     65 H24        -20.6530     5.3710    -2.1750 h1         1 IQC       0.053700
     66 H25        -21.8010     6.0770    -3.3220 h1         1 IQC       0.053700
     67 H26        -23.4200     1.1510    -1.6750 h1         1 IQC       0.055700
     68 H27        -22.3870     1.2780    -3.1350 h1         1 IQC       0.055700
     69 H28        -19.9330     2.6650    -2.0670 h1         1 IQC       0.055700
     70 H29        -20.3430     2.8850    -0.3390 h1         1 IQC       0.055700
     71 H30        -20.3530     8.0360     1.9680 h1         1 IQC       0.075700
     72 H31        -27.5390     9.9380    -2.3830 hc         1 IQC       0.044367
     73 H32        -27.0340    11.5520    -1.8530 hc         1 IQC       0.044367
     74 H33        -28.6530    11.3000    -2.5200 hc         1 IQC       0.044367
     75 H34        -21.6160    13.2470     4.2580 h1         1 IQC       0.032700
     76 H35        -23.2620    12.5840     4.1890 h1         1 IQC       0.032700
     77 H36        -22.1910    12.1640     5.5480 h1         1 IQC       0.032700
     78 H39        -21.5710    10.6760     1.2670 hn         1 IQC       0.521000
     79 H37        -25.7630    12.5080    -8.5910 hn         1 IQC       0.375000
     80 C7         -22.2240    12.3570     4.4670 c3         1 IQC       0.157100
     81 C33        -20.5050     0.3800    -2.1210 c          1 IQC       0.613100
@<TRIPOS>BOND
     1     1     2 ar  
     2     1     9 ar  
     3     1    42 1   
     4     2    11 ar  
     5     2    43 1   
     6     3     5 ar  
     7     3    13 ar  
     8     3    44 1   
     9     4     6 1   
    10     4    31 2   
    11     4    45 1   
    12     5    10 ar  
    13     5    14 ar  
    14     6     7 ar  
    15     6    11 ar  
    16     7     8 1   
    17     7     9 ar  
    18     8    12 ar  
    19     8    13 ar  
    20     9    30 1   
    21    10    12 ar  
    22    10    32 ar  
    23    11    34 1   
    24    12    40 1   
    25    13    41 1   
    26    14    33 ar  
    27    14    35 1   
    28    15    32 ar  
    29    15    33 ar  
    30    15    38 1   
    31    16    17 1   
    32    16    46 1   
    33    16    47 1   
    34    16    48 1   
    35    17    49 1   
    36    17    50 1   
    37    17    81 1   
    38    18    22 1   
    39    18    28 1   
    40    18    51 1   
    41    18    52 1   
    42    19    23 1   
    43    19    28 1   
    44    19    53 1   
    45    19    54 1   
    46    20    24 1   
    47    20    29 1   
    48    20    55 1   
    49    20    56 1   
    50    21    25 1   
    51    21    29 1   
    52    21    57 1   
    53    21    58 1   
    54    22    37 1   
    55    22    59 1   
    56    22    60 1   
    57    23    37 1   
    58    23    61 1   
    59    23    62 1   
    60    24    35 1   
    61    24    63 1   
    62    24    64 1   
    63    25    35 1   
    64    25    65 1   
    65    25    66 1   
    66    26    29 1   
    67    26    36 1   
    68    26    67 1   
    69    26    68 1   
    70    27    29 1   
    71    27    36 1   
    72    27    69 1   
    73    27    70 1   
    74    28    38 1   
    75    28    71 1   
    76    30    72 1   
    77    30    73 1   
    78    30    74 1   
    79    31    34 1   
    80    34    79 1   
    81    36    81 1   
    82    37    80 1   
    83    38    78 1   
    84    39    81 2   
    85    75    80 1   
    86    76    80 1   
    87    77    80 1   
@<TRIPOS>SUBSTRUCTURE
     1 IQC         1 TEMP              0 ****  ****    0 ROOT
