@<TRIPOS>MOLECULE
IQC
   81    87     1     0     0
SMALL
abcg2


@<TRIPOS>ATOM
      1 C24        -27.4580    12.1560    -5.0820 ca         1 IQC      -0.074000
      2 C25        -26.9280    12.5380    -6.2920 ca         1 IQC      -0.120000
      3 C14        -24.3580     7.5590    -2.9210 ca         1 IQC      -0.063000
      4 C28        -23.7920    10.8340    -6.4550 cc         1 IQC       0.357800
      5 C13        -23.4320     8.0510    -1.9840 ca         1 IQC      -0.198000
      6 C27        -24.9940    11.1390    -5.7620 ca         1 IQC      -0.204900
      7 C22        -25.5610    10.7670    -4.5340 cp         1 IQC       0.031000
      8 C17        -24.8390     9.8240    -3.6520 cp         1 IQC      -0.044000
      9 C23        -26.8000    11.2750    -4.1910 ca         1 IQC      -0.078300
     10 C19        -23.2770     9.4410    -1.7990 ca         1 IQC       0.065000
     11 C26        -25.6770    12.0110    -6.6230 ca         1 IQC      -0.043200
     12 C18        -23.9680    10.2810    -2.7030 ca         1 IQC       0.183000
     13 C15        -25.0350     8.4290    -3.7300 ca         1 IQC       0.105000
     14 C11        -22.6600     7.2380    -1.0730 ca         1 IQC       0.437900
     15 C9         -22.0610     9.1350     0.0720 ca         1 IQC       0.427900
     16 C36        -19.5130    -1.7520    -2.2720 c3         1 IQC      -0.076100
     17 C35        -19.9710    -0.3150    -2.0980 c3         1 IQC      -0.152400
     18 C1         -19.9290     9.6080     3.0790 c6         1 IQC      -0.096900
     19 C3         -22.2080     8.6340     3.2590 c6         1 IQC      -0.096900
     20 C38        -22.8220     3.7310    -0.1300 c6         1 IQC      -0.074900
     21 C40        -23.0420     3.9280    -2.6030 c6         1 IQC      -0.074900
     22 C6         -20.5090    10.5850     4.1110 c6         1 IQC       0.164300
     23 C4         -22.7970     9.9630     3.7460 c6         1 IQC       0.164300
     24 C37        -22.1110     5.0770    -0.1030 c6         1 IQC       0.216800
     25 C41        -22.3160     5.2570    -2.5040 c6         1 IQC       0.216800
     26 C42        -23.2320     1.5920    -1.5200 cy         1 IQC       0.108500
     27 C43        -21.2300     2.3670    -1.6390 cy         1 IQC       0.108500
     28 C2         -21.0360     8.8750     2.3120 c6         1 IQC       0.254500
     29 C39        -22.6310     3.0160    -1.4570 cy         1 IQC      -0.091000
     30 C31        -27.4640    10.8910    -2.8990 c3         1 IQC      -0.045800
     31 N29        -23.7520    11.4550    -7.6080 nd         1 IQC      -0.516100
     32 N20        -22.5700     9.9890    -0.8000 nb         1 IQC      -0.262000
     33 N10        -22.0580     7.7920    -0.0500 nb         1 IQC      -0.329000
     34 N30        -24.8800    12.1600    -7.7080 na         1 IQC      -0.064400
     35 N12        -22.5770     5.8910    -1.2140 nh         1 IQC      -0.783300
     36 N32        -21.8900     1.0750    -1.6930 nj         1 IQC      -0.433800
     37 N5         -21.8160    11.0380     3.6720 n3         1 IQC      -0.734600
     38 N8         -21.4360     9.6470     1.1480 nu         1 IQC      -0.898100
     39 O34        -22.2480    -1.1170    -1.9460 o          1 IQC      -0.601100
     40 F21        -23.7860    11.5980    -2.5770 f          1 IQC      -0.147000
     41 CL1        -26.1890     7.8210    -4.8650 cl         1 IQC      -0.188000
     42 H1         -28.4280    12.5430    -4.7940 ha         1 IQC       0.113000
     43 H2         -27.4590    13.2110    -6.9520 ha         1 IQC       0.120000
     44 H3         -24.5710     6.5020    -2.9860 ha         1 IQC       0.133000
     45 H4         -22.9800    10.1930    -6.1470 h4         1 IQC       0.051800
     46 H5         -18.4330    -1.7860    -2.4110 hc         1 IQC       0.041700
     47 H6         -19.7530    -2.3590    -1.4000 hc         1 IQC       0.041700
     48 H7         -19.9740    -2.2200    -3.1410 hc         1 IQC       0.041700
     49 H8         -19.6740     0.2840    -2.9650 hc         1 IQC       0.053700
     50 H9         -19.4630     0.1440    -1.2440 hc         1 IQC       0.053700
     51 H10        -19.3020     8.8730     3.5870 hc         1 IQC       0.053200
     52 H11        -19.2840    10.1310     2.3700 hc         1 IQC       0.053200
     53 H12        -22.9800     8.0310     2.7770 hc         1 IQC       0.053200
     54 H13        -21.8410     8.0490     4.1060 hc         1 IQC       0.053200
     55 H14        -23.8910     3.8860     0.0440 hc         1 IQC       0.059200
     56 H15        -22.4490     3.1150     0.6920 hc         1 IQC       0.059200
     57 H16        -24.1240     4.0930    -2.5700 hc         1 IQC       0.059200
     58 H17        -22.8130     3.4630    -3.5640 hc         1 IQC       0.059200
     59 H18        -20.5580    10.1130     5.1060 h1         1 IQC       0.034950
     60 H19        -19.8520    11.4490     4.2130 h1         1 IQC       0.034950
     61 H20        -23.6590    10.2480     3.1360 h1         1 IQC       0.034950
     62 H21        -23.1720     9.8350     4.7750 h1         1 IQC       0.034950
     63 H22        -21.0230     4.9350    -0.1620 h1         1 IQC       0.053700
     64 H23        -22.3160     5.5880     0.8340 h1         1 IQC       0.053700
     65 H24        -21.2330     5.0920    -2.5920 h1         1 IQC       0.053700
     66 H25        -22.5860     5.9150    -3.3250 h1         1 IQC       0.053700
     67 H26        -23.7260     1.2570    -0.6040 h1         1 IQC       0.055700
     68 H27        -23.8970     1.4030    -2.3660 h1         1 IQC       0.055700
     69 H28        -20.7030     2.6430    -2.5570 h1         1 IQC       0.055700
     70 H29        -20.5470     2.4860    -0.7930 h1         1 IQC       0.055700
     71 H30        -20.6550     7.9200     1.9550 h1         1 IQC       0.075700
     72 H31        -27.6780     9.8210    -2.8630 hc         1 IQC       0.044367
     73 H32        -26.8380    11.1220    -2.0360 hc         1 IQC       0.044367
     74 H33        -28.4090    11.4180    -2.7700 hc         1 IQC       0.044367
     75 H34        -21.5630    13.0330     4.2330 h1         1 IQC       0.032700
     76 H35        -23.2330    12.5390     3.9570 h1         1 IQC       0.032700
     77 H36        -22.4100    12.0600     5.4470 h1         1 IQC       0.032700
     78 H39        -21.5660    10.6360     1.3040 hn         1 IQC       0.521000
     79 H37        -25.0510    12.7170    -8.5290 hn         1 IQC       0.375000
     80 C7         -22.2740    12.2170     4.3660 c3         1 IQC       0.157100
     81 C33        -21.4660    -0.1740    -1.9080 c          1 IQC       0.613100
@<TRIPOS>BOND
     1     1     2 ar  
     2     1     9 ar  
     3     1    42 1   
     4     2    11 ar  
     5     2    43 1   
     6     3     5 ar  
     7     3    13 ar  
     8     3    44 1   
     9     4     6 1   
    10     4    31 2   
    11     4    45 1   
    12     5    10 ar  
    13     5    14 ar  
    14     6     7 ar  
    15     6    11 ar  
    16     7     8 1   
    17     7     9 ar  
    18     8    12 ar  
    19     8    13 ar  
    20     9    30 1   
    21    10    12 ar  
    22    10    32 ar  
    23    11    34 1   
    24    12    40 1   
    25    13    41 1   
    26    14    33 ar  
    27    14    35 1   
    28    15    32 ar  
    29    15    33 ar  
    30    15    38 1   
    31    16    17 1   
    32    16    46 1   
    33    16    47 1   
    34    16    48 1   
    35    17    49 1   
    36    17    50 1   
    37    17    81 1   
    38    18    22 1   
    39    18    28 1   
    40    18    51 1   
    41    18    52 1   
    42    19    23 1   
    43    19    28 1   
    44    19    53 1   
    45    19    54 1   
    46    20    24 1   
    47    20    29 1   
    48    20    55 1   
    49    20    56 1   
    50    21    25 1   
    51    21    29 1   
    52    21    57 1   
    53    21    58 1   
    54    22    37 1   
    55    22    59 1   
    56    22    60 1   
    57    23    37 1   
    58    23    61 1   
    59    23    62 1   
    60    24    35 1   
    61    24    63 1   
    62    24    64 1   
    63    25    35 1   
    64    25    65 1   
    65    25    66 1   
    66    26    29 1   
    67    26    36 1   
    68    26    67 1   
    69    26    68 1   
    70    27    29 1   
    71    27    36 1   
    72    27    69 1   
    73    27    70 1   
    74    28    38 1   
    75    28    71 1   
    76    30    72 1   
    77    30    73 1   
    78    30    74 1   
    79    31    34 1   
    80    34    79 1   
    81    36    81 1   
    82    37    80 1   
    83    38    78 1   
    84    39    81 2   
    85    75    80 1   
    86    76    80 1   
    87    77    80 1   
@<TRIPOS>SUBSTRUCTURE
     1 IQC         1 TEMP              0 ****  ****    0 ROOT
