@<TRIPOS>MOLECULE
IQD
   19    20     1     0     0
SMALL
No Charge or Current Charge


@<TRIPOS>ATOM
      1 O01         -2.5150     1.6350    -0.1730 oh         1 IQD      -0.536100
      2 C02         -1.7610     0.4980    -0.1210 ca         1 IQD       0.131100
      3 C03         -2.3980    -0.7520    -0.1220 ca         1 IQD      -0.175000
      4 C04         -1.6340    -1.9280    -0.0720 ca         1 IQD      -0.083000
      5 C05         -0.2330    -1.8550    -0.0220 ca         1 IQD      -0.082000
      6 C06          0.4250    -0.6020    -0.0190 ca         1 IQD      -0.149600
      7 C07          1.9400    -0.5390     0.0330 c          1 IQD       0.699100
      8 O08          2.6090    -1.5610     0.0100 o          1 IQD      -0.488100
      9 N09          2.5500     0.7150     0.1140 ne         1 IQD      -0.640100
     10 C10          1.8630     1.8180     0.0660 c2         1 IQD       0.497200
     11 C11          0.3620     1.9200    -0.0730 c6         1 IQD      -0.143400
     12 C12         -0.3510     0.5740    -0.0690 ca         1 IQD      -0.077300
     13 H1          -3.4620     1.3790    -0.2050 ho         1 IQD       0.469000
     14 H2          -3.4830    -0.8200    -0.1620 ha         1 IQD       0.117000
     15 H3          -2.1270    -2.8980    -0.0730 ha         1 IQD       0.121000
     16 H4           0.3410    -2.7790     0.0160 ha         1 IQD       0.141000
     17 H5           2.4060     2.7570     0.1330 h4         1 IQD       0.022800
     18 H6          -0.0200     2.5440     0.7460 hc         1 IQD       0.088200
     19 H7           0.1330     2.4570    -1.0030 hc         1 IQD       0.088200
@<TRIPOS>BOND
     1     1     2 1   
     2     1    13 1   
     3     2     3 ar  
     4     2    12 ar  
     5     3     4 ar  
     6     3    14 1   
     7     4     5 ar  
     8     4    15 1   
     9     5     6 ar  
    10     5    16 1   
    11     6     7 1   
    12     6    12 ar  
    13     7     8 2   
    14     7     9 1   
    15     9    10 2   
    16    10    11 1   
    17    10    17 1   
    18    11    12 1   
    19    11    18 1   
    20    11    19 1   
@<TRIPOS>SUBSTRUCTURE
     1 IQD         1 TEMP              0 ****  ****    0 ROOT
