@<TRIPOS>MOLECULE
IQD
   19    20     1     0     0
SMALL
bcc


@<TRIPOS>ATOM
      1 O01         -2.4140     1.6430    -0.1730 oh         1 IQD      -0.497100
      2 C02         -1.7450     0.4770    -0.1260 ca         1 IQD       0.131100
      3 C03         -2.3650    -0.7630    -0.1300 ca         1 IQD      -0.193000
      4 C04         -1.6030    -1.9240    -0.0820 ca         1 IQD      -0.101000
      5 C05         -0.2250    -1.8590    -0.0280 ca         1 IQD      -0.100000
      6 C06          0.3990    -0.6120    -0.0200 ca         1 IQD      -0.149600
      7 C07          1.8760    -0.5340     0.0470 c          1 IQD       0.699100
      8 O08          2.5710    -1.5210     0.0760 o          1 IQD      -0.488100
      9 N09          2.5090     0.7250     0.0860 ne         1 IQD      -0.640100
     10 C10          1.8040     1.7800     0.0350 c2         1 IQD       0.497200
     11 C11          0.3280     1.8810    -0.0590 c6         1 IQD      -0.143400
     12 C12         -0.3520     0.5580    -0.0700 ca         1 IQD      -0.077300
     13 H1          -3.3640     1.4940    -0.1950 ho         1 IQD       0.430000
     14 H2          -3.4460    -0.8350    -0.1690 ha         1 IQD       0.135000
     15 H3          -2.1010    -2.8840    -0.0860 ha         1 IQD       0.139000
     16 H4           0.3660    -2.7630     0.0120 ha         1 IQD       0.159000
     17 H5           2.3420     2.7270     0.0660 h4         1 IQD       0.022800
     18 H6          -0.0210     2.5060     0.7720 hc         1 IQD       0.088200
     19 H7           0.0870     2.4680    -0.9540 hc         1 IQD       0.088200
@<TRIPOS>BOND
     1     1     2 1   
     2     1    13 1   
     3     2     3 ar  
     4     2    12 ar  
     5     3     4 ar  
     6     3    14 1   
     7     4     5 ar  
     8     4    15 1   
     9     5     6 ar  
    10     5    16 1   
    11     6     7 1   
    12     6    12 ar  
    13     7     8 2   
    14     7     9 1   
    15     9    10 2   
    16    10    11 1   
    17    10    17 1   
    18    11    12 1   
    19    11    18 1   
    20    11    19 1   
@<TRIPOS>SUBSTRUCTURE
     1 IQD         1 TEMP              0 ****  ****    0 ROOT
