@<TRIPOS>MOLECULE
IQE
   38    40     1     0     0
SMALL
No Charge or Current Charge


@<TRIPOS>ATOM
      1 O14        -38.5090    18.3170    -1.3790 o          1 IQE      -0.516500
      2 S13        -39.5790    18.0000    -2.3330 sy         1 IQE       1.200300
      3 O15        -39.2870    17.6860    -3.7360 o          1 IQE      -0.516500
      4 C11        -40.8370    19.2400    -2.2510 ca         1 IQE      -0.280500
      5 C12        -40.7500    20.5790    -2.6550 ca         1 IQE       0.093000
      6 C7         -41.8960    21.3880    -2.4900 ca         1 IQE      -0.266500
      7 S1         -41.8420    23.1050    -2.9870 sy         1 IQE       1.180600
      8 O5         -40.4650    23.5800    -3.0880 o          1 IQE      -0.545500
      9 N7         -42.3350    23.0550    -4.5350 n8         1 IQE      -1.057100
     10 O6         -42.8900    23.8780    -2.3270 o          1 IQE      -0.545500
     11 C8         -43.0850    20.8460    -1.9380 ca         1 IQE       0.034000
     12 C9         -43.1400    19.4930    -1.5420 ca         1 IQE      -0.073000
     13 C10        -41.9980    18.6930    -1.7060 ca         1 IQE      -0.046600
     14 N16        -40.5740    16.7760    -1.6740 n          1 IQE      -0.490200
     15 C17        -41.8520    17.2330    -1.3460 c          1 IQE       0.580600
     16 O18        -42.7240    16.5430    -0.8390 o          1 IQE      -0.475000
     17 C19        -40.0810    15.4180    -1.3830 c3         1 IQE       0.118000
     18 C20        -40.2200    14.4580    -2.5800 c3         1 IQE      -0.054100
     19 C21        -39.7220    13.0580    -2.2460 ca         1 IQE      -0.088300
     20 C22        -38.3940    12.6880    -2.5350 ca         1 IQE      -0.103000
     21 C23        -37.9330    11.3970    -2.2200 ca         1 IQE      -0.109500
     22 C24        -38.7980    10.4700    -1.6150 ca         1 IQE      -0.107000
     23 C25        -40.1230    10.8350    -1.3230 ca         1 IQE      -0.109500
     24 C26        -40.5840    12.1250    -1.6370 ca         1 IQE      -0.103000
     25 H1         -39.8280    20.9750    -3.0810 ha         1 IQE       0.158000
     26 H2         -43.0880    23.7390    -4.4920 hn         1 IQE       0.497000
     27 H3         -41.5880    23.5960    -4.9670 hn         1 IQE       0.497000
     28 H4         -43.9690    21.4690    -1.8150 ha         1 IQE       0.140000
     29 H5         -44.0520    19.0790    -1.1180 ha         1 IQE       0.147000
     30 H6         -40.6330    15.0070    -0.5270 h1         1 IQE       0.070200
     31 H7         -39.0240    15.4730    -1.0890 h1         1 IQE       0.070200
     32 H8         -39.6670    14.8630    -3.4360 hc         1 IQE       0.064700
     33 H9         -41.2730    14.4200    -2.8850 hc         1 IQE       0.064700
     34 H10        -37.7160    13.4000    -3.0020 ha         1 IQE       0.115000
     35 H11        -36.9070    11.1170    -2.4450 ha         1 IQE       0.114000
     36 H12        -38.4420     9.4720    -1.3710 ha         1 IQE       0.113000
     37 H13        -40.7940    10.1180    -0.8530 ha         1 IQE       0.114000
     38 H14        -41.6110    12.4000    -1.4070 ha         1 IQE       0.115000
@<TRIPOS>BOND
     1     1     2 2   
     2     2     3 2   
     3     2     4 1   
     4     2    14 1   
     5     4     5 ar  
     6     4    13 ar  
     7     5     6 ar  
     8     5    25 1   
     9     6     7 1   
    10     6    11 ar  
    11     7     8 2   
    12     7     9 1   
    13     7    10 2   
    14     9    26 1   
    15     9    27 1   
    16    11    12 ar  
    17    11    28 1   
    18    12    13 ar  
    19    12    29 1   
    20    13    15 1   
    21    14    15 1   
    22    14    17 1   
    23    15    16 2   
    24    17    18 1   
    25    17    30 1   
    26    17    31 1   
    27    18    19 1   
    28    18    32 1   
    29    18    33 1   
    30    19    20 ar  
    31    19    24 ar  
    32    20    21 ar  
    33    20    34 1   
    34    21    22 ar  
    35    21    35 1   
    36    22    23 ar  
    37    22    36 1   
    38    23    24 ar  
    39    23    37 1   
    40    24    38 1   
@<TRIPOS>SUBSTRUCTURE
     1 IQE         1 TEMP              0 ****  ****    0 ROOT
