@<TRIPOS>MOLECULE
IQE
   38    40     1     0     0
SMALL
abcg2


@<TRIPOS>ATOM
      1 O14        -38.4750    18.3480    -1.0320 o          1 IQE      -0.516500
      2 S13        -39.4520    18.0310    -2.0410 sy         1 IQE       1.200300
      3 O15        -38.9650    17.6750    -3.3480 o          1 IQE      -0.516500
      4 C11        -40.7470    19.2280    -2.1140 ca         1 IQE      -0.280500
      5 C12        -40.6450    20.5370    -2.5410 ca         1 IQE       0.093000
      6 C7         -41.8180    21.2850    -2.5180 ca         1 IQE      -0.266500
      7 S1         -41.7670    22.9840    -3.0670 sy         1 IQE       1.180600
      8 O5         -40.3750    23.3170    -3.2510 o          1 IQE      -0.545500
      9 N7         -42.5480    22.9390    -4.4980 n8         1 IQE      -1.057100
     10 O6         -42.5840    23.7640    -2.1690 o          1 IQE      -0.545500
     11 C8         -43.0300    20.7520    -2.0780 ca         1 IQE       0.034000
     12 C9         -43.0970    19.4320    -1.6510 ca         1 IQE      -0.073000
     13 C10        -41.9400    18.6690    -1.6770 ca         1 IQE      -0.046600
     14 N16        -40.4930    16.8400    -1.4660 n          1 IQE      -0.490200
     15 C17        -41.8030    17.2380    -1.2880 c          1 IQE       0.580600
     16 O18        -42.6860    16.5110    -0.8820 o          1 IQE      -0.475000
     17 C19        -40.0280    15.4650    -1.2680 c3         1 IQE       0.118000
     18 C20        -40.3140    14.5810    -2.4880 c3         1 IQE      -0.054100
     19 C21        -39.8150    13.1780    -2.2640 ca         1 IQE      -0.088300
     20 C22        -38.5050    12.8300    -2.5950 ca         1 IQE      -0.103000
     21 C23        -38.0290    11.5450    -2.3610 ca         1 IQE      -0.109500
     22 C24        -38.8600    10.5870    -1.7870 ca         1 IQE      -0.107000
     23 C25        -40.1670    10.9240    -1.4500 ca         1 IQE      -0.109500
     24 C26        -40.6390    12.2110    -1.6870 ca         1 IQE      -0.103000
     25 H1         -39.7130    20.9640    -2.8800 ha         1 IQE       0.158000
     26 H2         -43.2710    23.6440    -4.5810 hn         1 IQE       0.497000
     27 H3         -41.9420    22.8640    -5.3060 hn         1 IQE       0.497000
     28 H4         -43.9180    21.3680    -2.0720 ha         1 IQE       0.140000
     29 H5         -44.0300    19.0040    -1.3090 ha         1 IQE       0.147000
     30 H6         -40.5330    15.0820    -0.3820 h1         1 IQE       0.070200
     31 H7         -38.9600    15.5010    -1.0550 h1         1 IQE       0.070200
     32 H8         -39.8270    15.0190    -3.3600 hc         1 IQE       0.064700
     33 H9         -41.3890    14.5750    -2.6710 hc         1 IQE       0.064700
     34 H10        -37.8560    13.5730    -3.0450 ha         1 IQE       0.115000
     35 H11        -37.0110    11.2900    -2.6300 ha         1 IQE       0.114000
     36 H12        -38.4920     9.5840    -1.6070 ha         1 IQE       0.113000
     37 H13        -40.8220    10.1830    -1.0070 ha         1 IQE       0.114000
     38 H14        -41.6600    12.4680    -1.4260 ha         1 IQE       0.115000
@<TRIPOS>BOND
     1     1     2 2   
     2     2     3 2   
     3     2     4 1   
     4     2    14 1   
     5     4     5 ar  
     6     4    13 ar  
     7     5     6 ar  
     8     5    25 1   
     9     6     7 1   
    10     6    11 ar  
    11     7     8 2   
    12     7     9 1   
    13     7    10 2   
    14     9    26 1   
    15     9    27 1   
    16    11    12 ar  
    17    11    28 1   
    18    12    13 ar  
    19    12    29 1   
    20    13    15 1   
    21    14    15 1   
    22    14    17 1   
    23    15    16 2   
    24    17    18 1   
    25    17    30 1   
    26    17    31 1   
    27    18    19 1   
    28    18    32 1   
    29    18    33 1   
    30    19    20 ar  
    31    19    24 ar  
    32    20    21 ar  
    33    20    34 1   
    34    21    22 ar  
    35    21    35 1   
    36    22    23 ar  
    37    22    36 1   
    38    23    24 ar  
    39    23    37 1   
    40    24    38 1   
@<TRIPOS>SUBSTRUCTURE
     1 IQE         1 TEMP              0 ****  ****    0 ROOT
