@<TRIPOS>MOLECULE
IQF
   49    52     1     0     0
SMALL
abcg2


@<TRIPOS>ATOM
      1 C02         29.1960   -43.8610   -16.4340 cc         1 IQF       0.343900
      2 C04         27.5540   -44.6500   -15.0380 cd         1 IQF       0.568800
      3 C05         26.1380   -44.8870   -14.6310 c3         1 IQF      -0.124700
      4 C06         25.1220   -44.3240   -15.6070 c3         1 IQF      -0.080100
      5 C07         31.6780   -44.0930   -16.0160 c3         1 IQF      -0.032800
      6 C11         29.6170   -45.9660   -12.6630 cc         1 IQF       0.535300
      7 C13         29.9420   -46.6620   -11.3900 c3         1 IQF      -0.078700
      8 C15         31.2470   -48.4990   -10.3260 cc         1 IQF       0.451800
      9 C18         32.0550   -48.8320    -8.4190 cd         1 IQF       0.813900
     10 C22         33.5240   -47.4440    -7.0040 c5         1 IQF       0.244800
     11 C23         34.3830   -47.8700    -5.8160 c5         1 IQF      -0.096900
     12 C24         33.5080   -48.8930    -5.0930 c5         1 IQF      -0.096900
     13 C25         32.8240   -49.6370    -6.2350 c5         1 IQF       0.244800
     14 N01         27.8860   -44.0370   -16.1270 nc         1 IQF      -0.697000
     15 C03         30.2420   -44.2900   -15.6670 cd         1 IQF      -0.099300
     16 N08         28.5380   -45.1080   -14.2140 na         1 IQF       0.069900
     17 C09         29.8710   -44.9540   -14.4790 cd         1 IQF      -0.042000
     18 N10         30.5670   -45.4960   -13.4980 nc         1 IQF      -0.399300
     19 N12         28.3750   -45.7600   -13.0530 nd         1 IQF      -0.590100
     20 C14         30.8660   -47.8650   -11.6170 c3         1 IQF      -0.102700
     21 N16         30.8990   -49.7170    -9.9120 na         1 IQF      -0.060700
     22 N17         31.4140   -49.9560    -8.6830 nc         1 IQF      -0.622800
     23 N19         31.9810   -47.9040    -9.4010 nd         1 IQF      -0.757000
     24 N20         32.7250   -48.6260    -7.2670 nh         1 IQF      -0.802300
     25 H26         29.3900   -43.3390   -17.3640 h4         1 IQF       0.032100
     26 H27         25.9940   -45.9640   -14.5050 hc         1 IQF       0.074700
     27 H28         25.9910   -44.4600   -13.6340 hc         1 IQF       0.074700
     28 H29         24.1160   -44.5320   -15.2450 hc         1 IQF       0.044367
     29 H30         25.2230   -43.2450   -15.7130 hc         1 IQF       0.044367
     30 H31         25.2220   -44.7690   -16.5950 hc         1 IQF       0.044367
     31 H33         32.1950   -43.5200   -15.2460 hc         1 IQF       0.054367
     32 H34         32.1940   -45.0500   -16.1060 hc         1 IQF       0.054367
     33 H32         31.7780   -43.5620   -16.9610 hc         1 IQF       0.054367
     34 H35         30.4330   -45.9570   -10.7160 hc         1 IQF       0.076700
     35 H36         29.0170   -46.9810   -10.9080 hc         1 IQF       0.076700
     36 H39         29.2200   -50.9500    -9.9430 h1         1 IQF       0.054700
     37 H40         29.7870   -50.4110   -11.5270 h1         1 IQF       0.054700
     38 H41         30.6870   -51.6520   -10.6480 h1         1 IQF       0.054700
     39 H42         34.1260   -47.1620    -7.8700 h1         1 IQF       0.048200
     40 H43         32.8940   -46.5830    -6.7510 h1         1 IQF       0.048200
     41 H44         35.3000   -48.3460    -6.1700 hc         1 IQF       0.050950
     42 H45         34.6680   -47.0280    -5.1870 hc         1 IQF       0.050950
     43 H46         34.0740   -49.5610    -4.4450 hc         1 IQF       0.050950
     44 H47         32.7630   -48.3850    -4.4770 hc         1 IQF       0.050950
     45 H49         31.8390   -50.0190    -5.9540 h1         1 IQF       0.048200
     46 H48         33.4210   -50.4940    -6.5700 h1         1 IQF       0.048200
     47 H38         30.3870   -48.5810   -12.2820 hc         1 IQF       0.069700
     48 H37         31.7770   -47.5330   -12.1180 hc         1 IQF       0.069700
     49 C21         30.1040   -50.7380   -10.5420 c3         1 IQF       0.078900
@<TRIPOS>BOND
     1     1    14 1   
     2     1    15 2   
     3     1    25 1   
     4     2     3 1   
     5     2    14 2   
     6     2    16 1   
     7     3     4 1   
     8     3    26 1   
     9     3    27 1   
    10     4    28 1   
    11     4    29 1   
    12     4    30 1   
    13     5    15 1   
    14     5    31 1   
    15     5    32 1   
    16     5    33 1   
    17     6     7 1   
    18     6    18 1   
    19     6    19 2   
    20     7    20 1   
    21     7    34 1   
    22     7    35 1   
    23     8    20 1   
    24     8    21 1   
    25     8    23 2   
    26     9    22 2   
    27     9    23 1   
    28     9    24 1   
    29    10    11 1   
    30    10    24 1   
    31    10    39 1   
    32    10    40 1   
    33    11    12 1   
    34    11    41 1   
    35    11    42 1   
    36    12    13 1   
    37    12    43 1   
    38    12    44 1   
    39    13    24 1   
    40    13    45 1   
    41    13    46 1   
    42    15    17 1   
    43    16    17 1   
    44    16    19 1   
    45    17    18 2   
    46    20    47 1   
    47    20    48 1   
    48    21    22 1   
    49    21    49 1   
    50    36    49 1   
    51    37    49 1   
    52    38    49 1   
@<TRIPOS>SUBSTRUCTURE
     1 IQF         1 TEMP              0 ****  ****    0 ROOT
