@<TRIPOS>MOLECULE
IQF
   49    52     1     0     0
SMALL
No Charge or Current Charge


@<TRIPOS>ATOM
      1 C02         29.4170   -43.7640   -16.6870 cc         1 IQF       0.343900
      2 C04         27.8870   -45.2880   -15.7130 cd         1 IQF       0.568800
      3 C05         26.5890   -46.0580   -15.7980 c3         1 IQF      -0.124700
      4 C06         25.4110   -45.3450   -15.0960 c3         1 IQF      -0.080100
      5 C07         31.5770   -43.0200   -15.5570 c3         1 IQF      -0.032800
      6 C11         29.6300   -45.8050   -12.8040 cc         1 IQF       0.535300
      7 C13         29.9510   -46.3680   -11.4470 c3         1 IQF      -0.078700
      8 C15         31.0160   -48.2850   -10.1500 cc         1 IQF       0.451800
      9 C18         31.8900   -48.7800    -8.3160 cd         1 IQF       0.813900
     10 C22         34.1320   -48.0860    -7.4090 c5         1 IQF       0.244800
     11 C23         34.9020   -48.7110    -6.2160 c5         1 IQF      -0.096900
     12 C24         33.7680   -48.8760    -5.1700 c5         1 IQF      -0.096900
     13 C25         32.6430   -49.5050    -6.0310 c5         1 IQF       0.244800
     14 N01         28.2250   -44.4900   -16.7470 nc         1 IQF      -0.697000
     15 C03         30.2930   -43.8110   -15.6080 cd         1 IQF      -0.099300
     16 N08         28.7380   -45.3740   -14.5920 na         1 IQF       0.069900
     17 C09         29.8920   -44.6650   -14.5430 cd         1 IQF      -0.042000
     18 N10         30.4930   -44.9190   -13.4030 nc         1 IQF      -0.399300
     19 N12         28.5290   -46.1340   -13.4720 nd         1 IQF      -0.590100
     20 C14         30.7180   -47.7120   -11.5100 c3         1 IQF      -0.102700
     21 N16         30.1840   -49.1140    -9.4190 na         1 IQF      -0.060700
     22 N17         30.7520   -49.4380    -8.2260 nc         1 IQF      -0.622800
     23 N19         32.1130   -48.0590    -9.4550 nd         1 IQF      -0.757000
     24 N20         32.8360   -48.7960    -7.3160 nh         1 IQF      -0.802300
     25 H26         29.6100   -43.1520   -17.5580 h4         1 IQF       0.032100
     26 H27         26.3250   -46.2250   -16.8490 hc         1 IQF       0.074700
     27 H28         26.7180   -47.0530   -15.3580 hc         1 IQF       0.074700
     28 H29         24.4940   -45.9380   -15.1880 hc         1 IQF       0.044367
     29 H30         25.6230   -45.2040   -14.0290 hc         1 IQF       0.044367
     30 H31         25.2310   -44.3610   -15.5450 hc         1 IQF       0.044367
     31 H33         31.5800   -42.3320   -14.7030 hc         1 IQF       0.054367
     32 H34         32.4430   -43.6850   -15.4550 hc         1 IQF       0.054367
     33 H32         31.7220   -42.4230   -16.4660 hc         1 IQF       0.054367
     34 H35         30.5450   -45.6400   -10.8820 hc         1 IQF       0.076700
     35 H36         29.0190   -46.5060   -10.8870 hc         1 IQF       0.076700
     36 H39         28.4130   -50.1880    -8.9670 h1         1 IQF       0.054700
     37 H40         28.1940   -48.7830   -10.0480 h1         1 IQF       0.054700
     38 H41         28.9470   -50.2810   -10.6700 h1         1 IQF       0.054700
     39 H42         34.6490   -48.2610    -8.3630 h1         1 IQF       0.048200
     40 H43         33.9980   -47.0030    -7.2790 h1         1 IQF       0.048200
     41 H44         35.3370   -49.6800    -6.4900 hc         1 IQF       0.050950
     42 H45         35.7180   -48.0700    -5.8650 hc         1 IQF       0.050950
     43 H46         34.0550   -49.5150    -4.3270 hc         1 IQF       0.050950
     44 H47         33.4590   -47.9070    -4.7600 hc         1 IQF       0.050950
     45 H49         31.6500   -49.3330    -5.5920 h1         1 IQF       0.048200
     46 H48         32.7860   -50.5880    -6.1550 h1         1 IQF       0.048200
     47 H38         30.1380   -48.4350   -12.0960 hc         1 IQF       0.069700
     48 H37         31.6590   -47.5630   -12.0530 hc         1 IQF       0.069700
     49 C21         28.8530   -49.6230    -9.7980 c3         1 IQF       0.078900
@<TRIPOS>BOND
     1     1    14 1   
     2     1    15 2   
     3     1    25 1   
     4     2     3 1   
     5     2    14 2   
     6     2    16 1   
     7     3     4 1   
     8     3    26 1   
     9     3    27 1   
    10     4    28 1   
    11     4    29 1   
    12     4    30 1   
    13     5    15 1   
    14     5    31 1   
    15     5    32 1   
    16     5    33 1   
    17     6     7 1   
    18     6    18 1   
    19     6    19 2   
    20     7    20 1   
    21     7    34 1   
    22     7    35 1   
    23     8    20 1   
    24     8    21 1   
    25     8    23 2   
    26     9    22 2   
    27     9    23 1   
    28     9    24 1   
    29    10    11 1   
    30    10    24 1   
    31    10    39 1   
    32    10    40 1   
    33    11    12 1   
    34    11    41 1   
    35    11    42 1   
    36    12    13 1   
    37    12    43 1   
    38    12    44 1   
    39    13    24 1   
    40    13    45 1   
    41    13    46 1   
    42    15    17 1   
    43    16    17 1   
    44    16    19 1   
    45    17    18 2   
    46    20    47 1   
    47    20    48 1   
    48    21    22 1   
    49    21    49 1   
    50    36    49 1   
    51    37    49 1   
    52    38    49 1   
@<TRIPOS>SUBSTRUCTURE
     1 IQF         1 TEMP              0 ****  ****    0 ROOT
