@<TRIPOS>MOLECULE
IQH
   26    27     1     0     0
SMALL
No Charge or Current Charge


@<TRIPOS>ATOM
      1 C01          5.3040     8.6570    21.0560 ca         1 IQH      -0.059300
      2 C02          6.0890     8.8340    22.2110 ca         1 IQH      -0.108000
      3 C04          5.2650     6.7260    23.1100 ca         1 IQH      -0.114000
      4 C05          4.4800     6.5430    21.9590 ca         1 IQH      -0.099000
      5 C06          4.4990     7.5060    20.9350 ca         1 IQH      -0.083000
      6 C07          5.3440     9.6920    19.9370 c3         1 IQH      -0.030100
      7 C10          7.3370     5.9470    17.8330 cc         1 IQH      -0.227000
      8 C11          6.4430     6.5450    16.9610 cd         1 IQH       0.237500
      9 C03          6.0680     7.8710    23.2340 ca         1 IQH       0.118000
     10 C08          6.6140     9.5680    19.0680 c3         1 IQH      -0.090700
     11 C09          6.7650     8.2150    18.4240 cc         1 IQH       0.399700
     12 N12          6.1230     7.8650    17.3200 nd         1 IQH      -0.601000
     13 S13          7.8100     7.0110    19.1260 ss         1 IQH      -0.187400
     14 O15          6.2830     4.6170    15.5700 o          1 IQH      -0.703500
     15 O16          5.1190     6.3200    14.9950 o          1 IQH      -0.703500
     16 Cl17         7.0550     8.0990    24.6720 cl         1 IQH      -0.237000
     17 H18          6.7180     9.7140    22.3160 ha         1 IQH       0.118000
     18 H19          5.2530     5.9820    23.9030 ha         1 IQH       0.118000
     19 H20          3.8580     5.6560    21.8590 ha         1 IQH       0.118000
     20 H21          3.8940     7.3530    20.0430 ha         1 IQH       0.142000
     21 H22          4.4600     9.5950    19.2940 hc         1 IQH       0.052200
     22 H23          5.3010    10.7020    20.3620 hc         1 IQH       0.052200
     23 H26          7.7430     4.9450    17.7880 h4         1 IQH       0.163000
     24 H24          6.5920    10.3430    18.2920 hc         1 IQH       0.047200
     25 H25          7.4940     9.7800    19.6870 hc         1 IQH       0.047200
     26 C14          5.9100     5.7710    15.7560 c          1 IQH       0.630500
@<TRIPOS>BOND
     1     1     2 ar  
     2     1     5 ar  
     3     1     6 1   
     4     2     9 ar  
     5     2    17 1   
     6     3     4 ar  
     7     3     9 ar  
     8     3    18 1   
     9     4     5 ar  
    10     4    19 1   
    11     5    20 1   
    12     6    10 1   
    13     6    21 1   
    14     6    22 1   
    15     7     8 2   
    16     7    13 1   
    17     7    23 1   
    18     8    12 1   
    19     8    26 1   
    20     9    16 1   
    21    10    11 1   
    22    10    24 1   
    23    10    25 1   
    24    11    12 2   
    25    11    13 1   
    26    14    26 1   
    27    15    26 1   
@<TRIPOS>SUBSTRUCTURE
     1 IQH         1 TEMP              0 ****  ****    0 ROOT
