@<TRIPOS>MOLECULE
IQH
   26    27     1     0     0
SMALL
bcc


@<TRIPOS>ATOM
      1 C01          5.3150     8.6590    20.9890 ca         1 IQH      -0.059300
      2 C02          6.0100     8.8430    22.1810 ca         1 IQH      -0.126000
      3 C04          5.2740     6.6780    22.9720 ca         1 IQH      -0.132000
      4 C05          4.5830     6.4990    21.7830 ca         1 IQH      -0.117000
      5 C06          4.6020     7.4790    20.8000 ca         1 IQH      -0.101000
      6 C07          5.3830     9.6990    19.9070 c3         1 IQH      -0.030100
      7 C10          7.4130     5.9660    17.8860 cc         1 IQH      -0.165400
      8 C11          6.4190     6.5170    17.1330 cd         1 IQH       0.302800
      9 C03          5.9810     7.8570    23.1540 ca         1 IQH       0.026400
     10 C08          6.6750     9.5910    19.0800 c3         1 IQH      -0.090700
     11 C09          6.8240     8.2460    18.4490 cc         1 IQH       0.399700
     12 N12          6.1030     7.8060    17.4710 nd         1 IQH      -0.601000
     13 S13          7.9630     7.0920    19.0490 ss         1 IQH      -0.332300
     14 O15          6.1230     4.6300    15.7790 o          1 IQH      -0.808800
     15 O16          4.7870     6.3930    15.4410 o          1 IQH      -0.808800
     16 CL17         6.8460     8.1060    24.6390 cl         1 IQH      -0.145400
     17 H18          6.5710     9.7550    22.3470 ha         1 IQH       0.136000
     18 H19          5.2600     5.9180    23.7400 ha         1 IQH       0.136000
     19 H20          4.0260     5.5850    21.6250 ha         1 IQH       0.136000
     20 H21          4.0590     7.3240    19.8760 ha         1 IQH       0.160000
     21 H22          4.5260     9.5960    19.2400 hc         1 IQH       0.052200
     22 H23          5.3360    10.7000    20.3390 hc         1 IQH       0.052200
     23 H26          7.8370     4.9790    17.8090 h4         1 IQH       0.181000
     24 H24          6.6600    10.3510    18.2960 hc         1 IQH       0.047200
     25 H25          7.5370     9.8060    19.7150 hc         1 IQH       0.047200
     26 C14          5.7070     5.7820    16.0100 c          1 IQH       0.841100
@<TRIPOS>BOND
     1     1     2 ar  
     2     1     5 ar  
     3     1     6 1   
     4     2     9 ar  
     5     2    17 1   
     6     3     4 ar  
     7     3     9 ar  
     8     3    18 1   
     9     4     5 ar  
    10     4    19 1   
    11     5    20 1   
    12     6    10 1   
    13     6    21 1   
    14     6    22 1   
    15     7     8 2   
    16     7    13 1   
    17     7    23 1   
    18     8    12 1   
    19     8    26 1   
    20     9    16 1   
    21    10    11 1   
    22    10    24 1   
    23    10    25 1   
    24    11    12 2   
    25    11    13 1   
    26    14    26 1   
    27    15    26 1   
@<TRIPOS>SUBSTRUCTURE
     1 IQH         1 TEMP              0 ****  ****    0 ROOT
