@<TRIPOS>MOLECULE
IQJ
   46    49     1     0     0
SMALL
bcc


@<TRIPOS>ATOM
      1 C10         93.8280    -6.2180    14.4480 c          1 IQJ       0.734700
      2 C13         94.4480    -3.9040    13.7290 cy         1 IQJ       0.100000
      3 C15         92.5250    -4.0060    14.6830 cy         1 IQJ       0.100000
      4 C16         94.2700    -9.8050    12.0100 ca         1 IQJ       0.077600
      5 C17         95.5190    -9.3690    11.5250 ca         1 IQJ      -0.169000
      6 C18         96.1130    -9.9580    10.4290 ca         1 IQJ      -0.060000
      7 C19         93.6110   -10.8540    11.3800 ca         1 IQJ      -0.119000
      8 C20         94.2100   -11.4470    10.2690 ca         1 IQJ       0.144400
      9 C21         95.4490   -11.0020     9.7980 ca         1 IQJ      -0.121100
     10 C23         94.4280   -12.8210     8.5790 cc         1 IQJ       0.443800
     11 C26         94.8400   -14.2590     6.6620 c          1 IQJ       0.675100
     12 C27         94.2300   -15.3880     5.8860 c3         1 IQJ      -0.175100
     13 N1          91.4430    -8.6010    15.8170 na         1 IQJ       0.158400
     14 C2          92.3410    -8.3050    14.8530 cc         1 IQJ      -0.102900
     15 C3          92.8000    -7.0180    15.1390 cd         1 IQJ      -0.319900
     16 C4          92.1040    -6.6560    16.3000 cd         1 IQJ       0.327200
     17 N5          91.3050    -7.6220    16.6970 nc         1 IQJ      -0.515800
     18 C7          92.5840    -9.2520    13.7260 c          1 IQJ       0.699700
     19 O8          91.7310   -10.0670    13.4150 o          1 IQJ      -0.597100
     20 N9          93.7840    -9.1220    13.1290 ns         1 IQJ      -0.463100
     21 O11         94.8180    -6.7330    13.9160 o          1 IQJ      -0.643100
     22 N12         93.6600    -4.8990    14.4460 nj         1 IQJ      -0.470800
     23 C14         93.2880    -2.9070    13.9180 cy         1 IQJ      -0.117400
     24 S22         95.9220   -11.9310     8.4060 ss         1 IQJ      -0.009100
     25 N24         93.6570   -12.4820     9.5540 nd         1 IQJ      -0.607100
     26 N25         94.0860   -13.8310     7.7220 ns         1 IQJ      -0.475400
     27 O28         95.9080   -13.7400     6.4050 o          1 IQJ      -0.561100
     28 H1          95.3800    -3.6430    14.2320 h1         1 IQJ       0.061450
     29 H2          94.6680    -4.1870    12.6980 h1         1 IQJ       0.061450
     30 H3          91.5960    -4.3500    14.2270 h1         1 IQJ       0.061450
     31 H4          92.3490    -3.7870    15.7360 h1         1 IQJ       0.061450
     32 H5          96.0270    -8.5500    12.0180 ha         1 IQJ       0.147000
     33 H6          97.0710    -9.6010    10.0740 ha         1 IQJ       0.141000
     34 H7          92.6570   -11.2210    11.7200 ha         1 IQJ       0.178000
     35 H8          94.8710   -15.6650     5.0540 hc         1 IQJ       0.070367
     36 H9          94.0850   -16.2570     6.5280 hc         1 IQJ       0.070367
     37 H10         93.2500   -15.1020     5.5000 hc         1 IQJ       0.070367
     38 H11         92.1800    -5.7470    16.8770 h4         1 IQJ       0.044100
     39 H12         90.2580    -9.7540    17.0260 h1         1 IQJ       0.070700
     40 H13         89.8490    -9.8760    15.3060 h1         1 IQJ       0.070700
     41 H14         91.2900   -10.6920    15.9380 h1         1 IQJ       0.070700
     42 H15         94.3770    -8.3570    13.4740 hn         1 IQJ       0.375500
     43 H16         93.5320    -2.0290    14.5100 hc         1 IQJ       0.064700
     44 H17         92.8120    -2.5950    12.9920 hc         1 IQJ       0.064700
     45 H18         93.1990   -14.2770     7.9130 hn         1 IQJ       0.339500
     46 C6          90.6640    -9.8090    16.0210 c3         1 IQJ       0.040600
@<TRIPOS>BOND
     1     1    15 1   
     2     1    21 2   
     3     1    22 1   
     4     2    22 1   
     5     2    23 1   
     6     2    28 1   
     7     2    29 1   
     8     3    22 1   
     9     3    23 1   
    10     3    30 1   
    11     3    31 1   
    12     4     5 ar  
    13     4     7 ar  
    14     4    20 1   
    15     5     6 ar  
    16     5    32 1   
    17     6     9 ar  
    18     6    33 1   
    19     7     8 ar  
    20     7    34 1   
    21     8     9 ar  
    22     8    25 1   
    23     9    24 1   
    24    10    24 1   
    25    10    25 2   
    26    10    26 1   
    27    11    12 1   
    28    11    26 1   
    29    11    27 2   
    30    12    35 1   
    31    12    36 1   
    32    12    37 1   
    33    13    14 1   
    34    13    17 1   
    35    13    46 1   
    36    14    15 2   
    37    14    18 1   
    38    15    16 1   
    39    16    17 2   
    40    16    38 1   
    41    18    19 2   
    42    18    20 1   
    43    20    42 1   
    44    23    43 1   
    45    23    44 1   
    46    26    45 1   
    47    39    46 1   
    48    40    46 1   
    49    41    46 1   
@<TRIPOS>SUBSTRUCTURE
     1 IQJ         1 TEMP              0 ****  ****    0 ROOT
