@<TRIPOS>MOLECULE
IQJ
   46    49     1     0     0
SMALL
No Charge or Current Charge


@<TRIPOS>ATOM
      1 C10         93.1730    -5.9740    14.2600 c          1 IQJ       0.667700
      2 C13         94.8180    -4.4940    14.7580 cy         1 IQJ       0.100000
      3 C15         92.9500    -3.7130    14.1010 cy         1 IQJ       0.100000
      4 C16         93.7830    -9.4710    11.5750 ca         1 IQJ      -0.015000
      5 C17         94.6180    -8.6860    10.7480 ca         1 IQJ      -0.151000
      6 C18         95.1730    -9.2190     9.5700 ca         1 IQJ      -0.042000
      7 C19         93.5160   -10.8130    11.2050 ca         1 IQJ      -0.101000
      8 C20         94.0740   -11.3360    10.0280 ca         1 IQJ       0.144400
      9 C21         94.8810   -10.5480     9.2380 ca         1 IQJ      -0.248000
     10 C23         94.5370   -12.7990     8.4500 cc         1 IQJ       0.443800
     11 C26         95.0320   -14.4800     6.6960 c          1 IQJ       0.608100
     12 C27         94.7120   -15.9270     6.3440 c3         1 IQJ      -0.175100
     13 N1          91.3970    -8.6720    16.0300 na         1 IQJ       0.179800
     14 C2          92.1080    -8.3300    14.8680 cc         1 IQJ      -0.153600
     15 C3          92.4710    -6.9930    15.1130 cd         1 IQJ      -0.254600
     16 C4          91.9880    -6.6950    16.4100 cd         1 IQJ       0.261900
     17 N5          91.3400    -7.6820    16.9780 nc         1 IQJ      -0.515800
     18 C7          92.3730    -9.2690    13.7180 c          1 IQJ       0.632700
     19 O8          91.8430   -10.3720    13.6650 o          1 IQJ      -0.597100
     20 N9          93.2670    -8.8530    12.7510 ns         1 IQJ      -0.137000
     21 O11         93.4560    -6.2200    13.0950 o          1 IQJ      -0.643100
     22 N12         93.3760    -4.7950    15.0500 nj         1 IQJ      -0.403800
     23 C14         94.3280    -3.0500    14.4170 cy         1 IQJ      -0.117400
     24 S22         95.4670   -11.4060     7.8230 ss         1 IQJ       0.117800
     25 N24         93.8630   -12.6380     9.5930 nd         1 IQJ      -0.607100
     26 N25         94.4510   -14.0370     7.8580 ns         1 IQJ      -0.408400
     27 O28         95.7480   -13.7890     5.9880 o          1 IQJ      -0.561100
     28 H1          95.4590    -4.5490    15.6450 h1         1 IQJ       0.061450
     29 H2          95.2940    -5.0100    13.9150 h1         1 IQJ       0.061450
     30 H3          92.8160    -3.9740    13.0440 h1         1 IQJ       0.061450
     31 H4          92.0880    -3.1390    14.4590 h1         1 IQJ       0.061450
     32 H5          94.8360    -7.6540    11.0170 ha         1 IQJ       0.129000
     33 H6          95.8130    -8.6110     8.9340 ha         1 IQJ       0.123000
     34 H7          92.8910   -11.4630    11.8070 ha         1 IQJ       0.160000
     35 H8          95.1910   -16.2480     5.4120 hc         1 IQJ       0.070367
     36 H9          94.9930   -16.5710     7.1850 hc         1 IQJ       0.070367
     37 H10         93.6240   -16.0540     6.3040 hc         1 IQJ       0.070367
     38 H11         92.0670    -5.7650    16.9590 h4         1 IQJ       0.044100
     39 H12         90.2980    -9.9320    17.3320 h1         1 IQJ       0.070700
     40 H13         89.9810   -10.1740    15.5920 h1         1 IQJ       0.070700
     41 H14         91.5100   -10.7600    16.3170 h1         1 IQJ       0.070700
     42 H15         93.6290    -7.9240    12.9070 hn         1 IQJ       0.209000
     43 H16         94.3130    -2.3670    15.2740 hc         1 IQJ       0.064700
     44 H17         94.8300    -2.5590    13.5770 hc         1 IQJ       0.064700
     45 H18         93.8840   -14.7180     8.3400 hn         1 IQJ       0.339500
     46 C6          90.7570    -9.9640    16.3370 c3         1 IQJ       0.069900
@<TRIPOS>BOND
     1     1    15 1   
     2     1    21 2   
     3     1    22 1   
     4     2    22 1   
     5     2    23 1   
     6     2    28 1   
     7     2    29 1   
     8     3    22 1   
     9     3    23 1   
    10     3    30 1   
    11     3    31 1   
    12     4     5 ar  
    13     4     7 ar  
    14     4    20 1   
    15     5     6 ar  
    16     5    32 1   
    17     6     9 ar  
    18     6    33 1   
    19     7     8 ar  
    20     7    34 1   
    21     8     9 ar  
    22     8    25 1   
    23     9    24 1   
    24    10    24 1   
    25    10    25 2   
    26    10    26 1   
    27    11    12 1   
    28    11    26 1   
    29    11    27 2   
    30    12    35 1   
    31    12    36 1   
    32    12    37 1   
    33    13    14 1   
    34    13    17 1   
    35    13    46 1   
    36    14    15 2   
    37    14    18 1   
    38    15    16 1   
    39    16    17 2   
    40    16    38 1   
    41    18    19 2   
    42    18    20 1   
    43    20    42 1   
    44    23    43 1   
    45    23    44 1   
    46    26    45 1   
    47    39    46 1   
    48    40    46 1   
    49    41    46 1   
@<TRIPOS>SUBSTRUCTURE
     1 IQJ         1 TEMP              0 ****  ****    0 ROOT
