@<TRIPOS>MOLECULE
IQK
   56    59     1     0     0
SMALL
No Charge or Current Charge


@<TRIPOS>ATOM
      1 C1          -5.7850     3.3110    -1.2530 c3         1 IQK       0.145400
      2 N1          -1.5430    -2.2810     1.1700 nu         1 IQK      -0.874600
      3 O1          -5.7330     1.9210    -1.6200 os         1 IQK      -0.334600
      4 S1          -3.1330    -2.3290     1.6970 sy         1 IQK       1.155100
      5 C2          -5.1340     0.9710    -0.8180 ca         1 IQK       0.200600
      6 N2           1.6070     2.3750     0.9970 nu         1 IQK      -0.874600
      7 O2           5.7420    -1.9920    -1.6180 os         1 IQK      -0.334600
      8 S2           3.2070     2.4540     1.4880 sy         1 IQK       1.155100
      9 C3          -5.1290    -0.3570    -1.2720 ca         1 IQK      -0.198000
     10 O3           3.6470     3.7470     0.9630 o          1 IQK      -0.529750
     11 C4          -4.5330    -1.3720    -0.5060 ca         1 IQK       0.027500
     12 O4           3.1670     2.1510     2.9210 o          1 IQK      -0.529750
     13 C5          -3.9380    -1.0540     0.7310 ca         1 IQK      -0.361000
     14 O5          -3.5820    -3.6520     1.2610 o          1 IQK      -0.529750
     15 C6          -0.7620    -1.1280     1.0780 ca         1 IQK       0.238500
     16 O6          -3.0630    -1.9400     3.1080 o          1 IQK      -0.529750
     17 C7          -0.3790    -0.5820    -0.1760 ca         1 IQK      -0.046000
     18 C8          -0.7870    -1.1840    -1.3930 ca         1 IQK      -0.103000
     19 C9          -0.4040    -0.6410    -2.6280 ca         1 IQK      -0.097000
     20 C10          0.3910     0.5100    -2.6700 ca         1 IQK      -0.097000
     21 C11          0.7990     1.1260    -1.4790 ca         1 IQK      -0.103000
     22 C12          0.4160     0.5980    -0.2200 ca         1 IQK      -0.046000
     23 C13          0.8250     1.2190     0.9910 ca         1 IQK       0.238500
     24 C14          3.9940     1.1220     0.5850 ca         1 IQK      -0.361000
     25 C15          4.5620     1.3630    -0.6810 ca         1 IQK       0.027500
     26 C16          5.1430     0.3040    -1.3960 ca         1 IQK      -0.198000
     27 C17          5.1590    -0.9940    -0.8630 ca         1 IQK       0.200600
     28 C18          5.8030    -3.3570    -1.1680 c3         1 IQK       0.145400
     29 C19          4.5860    -1.2340     0.4040 ca         1 IQK      -0.198000
     30 C20          4.0040    -0.1780     1.1250 ca         1 IQK       0.027500
     31 C21          0.4360     0.6620     2.2190 ca         1 IQK      -0.064500
     32 C22         -0.3480    -0.4980     2.2620 ca         1 IQK      -0.064500
     33 C23         -3.9380     0.2770     1.1920 ca         1 IQK       0.027500
     34 C24         -4.5360     1.2870     0.4190 ca         1 IQK      -0.198000
     35 H1          -4.7750     3.7230    -1.1390 h1         1 IQK       0.047367
     36 H1A         -6.3020     3.8900    -2.0280 h1         1 IQK       0.047367
     37 H1B         -6.3300     3.4460    -0.3100 h1         1 IQK       0.047367
     38 HN1         -1.5740    -2.8450     0.3340 hn         1 IQK       0.488500
     39 HN2          1.6210     2.8880     0.1290 hn         1 IQK       0.488500
     40 H3          -5.5870    -0.6000    -2.2260 ha         1 IQK       0.129000
     41 H4          -4.5320    -2.3950    -0.8800 ha         1 IQK       0.137500
     42 H8          -1.4070    -2.0750    -1.4030 ha         1 IQK       0.108000
     43 H9          -0.7240    -1.1150    -3.5530 ha         1 IQK       0.119500
     44 H10          0.6920     0.9270    -3.6290 ha         1 IQK       0.119500
     45 H11          1.4190     2.0150    -1.5560 ha         1 IQK       0.108000
     46 H15          4.5530     2.3620    -1.1170 ha         1 IQK       0.137500
     47 H16          5.5810     0.4880    -2.3730 ha         1 IQK       0.129000
     48 H18          6.3040    -3.9820    -1.9170 h1         1 IQK       0.047367
     49 H18A         6.3670    -3.4340    -0.2300 h1         1 IQK       0.047367
     50 H18B         4.7950    -3.7600    -1.0080 h1         1 IQK       0.047367
     51 H19          4.5800    -2.2270     0.8420 ha         1 IQK       0.129000
     52 H20          3.5570    -0.3790     2.0980 ha         1 IQK       0.137500
     53 H21          0.7360     1.1360     3.1480 ha         1 IQK       0.151500
     54 H22         -0.6280    -0.9160     3.2240 ha         1 IQK       0.151500
     55 H23         -3.4700     0.5350     2.1410 ha         1 IQK       0.137500
     56 H24         -4.5200     2.3050     0.7960 ha         1 IQK       0.129000
@<TRIPOS>BOND
     1     1     3 1   
     2     1    35 1   
     3     1    36 1   
     4     1    37 1   
     5     2     4 1   
     6     2    15 1   
     7     2    38 1   
     8     3     5 1   
     9     4    13 1   
    10     4    14 2   
    11     4    16 2   
    12     5     9 ar  
    13     5    34 ar  
    14     6     8 1   
    15     6    23 1   
    16     6    39 1   
    17     7    27 1   
    18     7    28 1   
    19     8    10 2   
    20     8    12 2   
    21     8    24 1   
    22     9    11 ar  
    23     9    40 1   
    24    11    13 ar  
    25    11    41 1   
    26    13    33 ar  
    27    15    17 ar  
    28    15    32 ar  
    29    17    18 ar  
    30    17    22 ar  
    31    18    19 ar  
    32    18    42 1   
    33    19    20 ar  
    34    19    43 1   
    35    20    21 ar  
    36    20    44 1   
    37    21    22 ar  
    38    21    45 1   
    39    22    23 ar  
    40    23    31 ar  
    41    24    25 ar  
    42    24    30 ar  
    43    25    26 ar  
    44    25    46 1   
    45    26    27 ar  
    46    26    47 1   
    47    27    29 ar  
    48    28    48 1   
    49    28    49 1   
    50    28    50 1   
    51    29    30 ar  
    52    29    51 1   
    53    30    52 1   
    54    31    32 ar  
    55    31    53 1   
    56    32    54 1   
    57    33    34 ar  
    58    33    55 1   
    59    34    56 1   
@<TRIPOS>SUBSTRUCTURE
     1 IQK         1 TEMP              0 ****  ****    0 ROOT
