@<TRIPOS>MOLECULE
IQK
   56    59     1     0     0
SMALL
bcc


@<TRIPOS>ATOM
      1 C1          -4.5030     2.5080    -2.7120 c3         1 IQK       0.122200
      2 N1          -1.6480    -2.1670     1.9780 nu         1 IQK      -0.681000
      3 O1          -4.6950     1.1070    -2.6160 os         1 IQK      -0.311400
      4 S1          -3.2820    -1.8950     2.2090 sy         1 IQK       1.296700
      5 C2          -4.4000     0.4920    -1.4670 ca         1 IQK       0.200600
      6 N2           1.7460     2.3200     1.8190 nu         1 IQK      -0.681000
      7 O2           4.6520    -1.2520    -2.6320 os         1 IQK      -0.311400
      8 S2           3.3830     2.0500     2.0340 sy         1 IQK       1.296700
      9 C3          -4.6060    -0.8930    -1.4390 ca         1 IQK      -0.216000
     10 O3           4.0000     3.3580     1.9040 o          1 IQK      -0.600550
     11 C4          -4.3090    -1.6180    -0.3060 ca         1 IQK       0.009500
     12 O4           3.5240     1.2880     3.2600 o          1 IQK      -0.600550
     13 C5          -3.8190    -0.9620     0.8210 ca         1 IQK      -0.361000
     14 O5          -3.8900    -3.2130     2.1710 o          1 IQK      -0.600550
     15 C6          -0.7850    -1.0470     1.8850 ca         1 IQK       0.100100
     16 O6          -3.4040    -1.0640     3.3920 o          1 IQK      -0.600550
     17 C7          -0.3860    -0.5310     0.6180 ca         1 IQK      -0.046000
     18 C8          -0.7960    -1.1160    -0.6020 ca         1 IQK      -0.121000
     19 C9          -0.3960    -0.5990    -1.8010 ca         1 IQK      -0.115000
     20 C10          0.4370     0.5330    -1.8410 ca         1 IQK      -0.115000
     21 C11          0.8510     1.1220    -0.6800 ca         1 IQK      -0.121000
     22 C12          0.4580     0.6120     0.5780 ca         1 IQK      -0.046000
     23 C13          0.8750     1.2030     1.8050 ca         1 IQK       0.100100
     24 C14          3.8840     1.0310     0.6930 ca         1 IQK      -0.361000
     25 C15          4.3420     1.6130    -0.4870 ca         1 IQK       0.009500
     26 C16          4.6040     0.8180    -1.5800 ca         1 IQK      -0.216000
     27 C17          4.3970    -0.5650    -1.5150 ca         1 IQK       0.200600
     28 C18          4.4440    -2.6540    -2.6380 c3         1 IQK       0.122200
     29 C19          3.9540    -1.1430    -0.3250 ca         1 IQK      -0.216000
     30 C20          3.6970    -0.3410     0.7750 ca         1 IQK       0.009500
     31 C21          0.4660     0.6800     3.0030 ca         1 IQK      -0.082500
     32 C22         -0.3600    -0.4520     3.0430 ca         1 IQK      -0.082500
     33 C23         -3.6310     0.4130     0.8100 ca         1 IQK       0.009500
     34 C24         -3.9200     1.1430    -0.3300 ca         1 IQK      -0.216000
     35 H1          -3.4570     2.7850    -2.5600 h1         1 IQK       0.047367
     36 H1A         -4.7980     2.7880    -3.7200 h1         1 IQK       0.047367
     37 H1B         -5.1230     3.0520    -1.9970 h1         1 IQK       0.047367
     38 HN1         -1.4860    -2.9080     1.3050 hn         1 IQK       0.433300
     39 HN2          1.5710     3.0320     1.1170 hn         1 IQK       0.433300
     40 H3          -4.9950    -1.3910    -2.3170 ha         1 IQK       0.147000
     41 H4          -4.4620    -2.6890    -0.3060 ha         1 IQK       0.155500
     42 H8          -1.4410    -1.9840    -0.6030 ha         1 IQK       0.126000
     43 H9          -0.7250    -1.0590    -2.7240 ha         1 IQK       0.137500
     44 H10          0.7550     0.9360    -2.7930 ha         1 IQK       0.137500
     45 H11          1.4960     1.9870    -0.7410 ha         1 IQK       0.126000
     46 H15          4.4950     2.6820    -0.5590 ha         1 IQK       0.155500
     47 H16          4.9650     1.2600    -2.4990 ha         1 IQK       0.147000
     48 H18          4.6980    -2.9970    -3.6370 h1         1 IQK       0.047367
     49 H18A         5.0860    -3.1620    -1.9150 h1         1 IQK       0.047367
     50 H18B         3.4020    -2.9090    -2.4310 h1         1 IQK       0.047367
     51 H19          3.7980    -2.2080    -0.2350 ha         1 IQK       0.147000
     52 H20          3.3490    -0.8020     1.6890 ha         1 IQK       0.155500
     53 H21          0.7800     1.1430     3.9270 ha         1 IQK       0.169500
     54 H22         -0.6600    -0.8610     3.9970 ha         1 IQK       0.169500
     55 H23         -3.2550     0.9300     1.6830 ha         1 IQK       0.155500
     56 H24         -3.7600     2.2110    -0.3140 ha         1 IQK       0.147000
@<TRIPOS>BOND
     1     1     3 1   
     2     1    35 1   
     3     1    36 1   
     4     1    37 1   
     5     2     4 1   
     6     2    15 1   
     7     2    38 1   
     8     3     5 1   
     9     4    13 1   
    10     4    14 2   
    11     4    16 2   
    12     5     9 ar  
    13     5    34 ar  
    14     6     8 1   
    15     6    23 1   
    16     6    39 1   
    17     7    27 1   
    18     7    28 1   
    19     8    10 2   
    20     8    12 2   
    21     8    24 1   
    22     9    11 ar  
    23     9    40 1   
    24    11    13 ar  
    25    11    41 1   
    26    13    33 ar  
    27    15    17 ar  
    28    15    32 ar  
    29    17    18 ar  
    30    17    22 ar  
    31    18    19 ar  
    32    18    42 1   
    33    19    20 ar  
    34    19    43 1   
    35    20    21 ar  
    36    20    44 1   
    37    21    22 ar  
    38    21    45 1   
    39    22    23 ar  
    40    23    31 ar  
    41    24    25 ar  
    42    24    30 ar  
    43    25    26 ar  
    44    25    46 1   
    45    26    27 ar  
    46    26    47 1   
    47    27    29 ar  
    48    28    48 1   
    49    28    49 1   
    50    28    50 1   
    51    29    30 ar  
    52    29    51 1   
    53    30    52 1   
    54    31    32 ar  
    55    31    53 1   
    56    32    54 1   
    57    33    34 ar  
    58    33    55 1   
    59    34    56 1   
@<TRIPOS>SUBSTRUCTURE
     1 IQK         1 TEMP              0 ****  ****    0 ROOT
