@<TRIPOS>MOLECULE
IQL
   18    18     1     0     0
SMALL
bcc


@<TRIPOS>ATOM
      1 C01         22.0870    44.5530   -10.0570 c3         1 IQL       0.233100
      2 C03         23.3500    42.4820    -9.8610 ce         1 IQL       0.578200
      3 C05         24.7300    41.8840    -9.8880 ca         1 IQL       0.569700
      4 C07         26.0240    40.0420    -9.7120 ca         1 IQL       0.446700
      5 C08         27.1600    40.8060    -9.9230 ca         1 IQL      -0.362600
      6 C09         26.9620    42.1620   -10.1150 ca         1 IQL       0.446700
      7 N02         23.3160    43.8100   -10.0690 nu         1 IQL      -0.864200
      8 N04         22.2910    41.7940    -9.6590 n2         1 IQL      -0.834100
      9 N06         24.8110    40.5770    -9.6940 nb         1 IQL      -0.701000
     10 N10         25.7500    42.7010   -10.0980 nb         1 IQL      -0.701000
     11 H1          22.3080    45.5990   -10.2560 h1         1 IQL       0.035367
     12 H2          21.3940    44.1960   -10.8210 h1         1 IQL       0.035367
     13 H3          21.5780    44.4860    -9.0920 h1         1 IQL       0.035367
     14 H4          26.0900    38.9720    -9.5540 h4         1 IQL       0.029100
     15 H5          28.1460    40.3670    -9.9370 ha         1 IQL       0.157000
     16 H6          27.7960    42.8330   -10.2860 h4         1 IQL       0.029100
     17 H7          24.1900    44.2920   -10.1910 hn         1 IQL       0.458800
     18 H8          22.5430    40.8200    -9.5340 hn         1 IQL       0.407400
@<TRIPOS>BOND
     1     1     7 1   
     2     1    11 1   
     3     1    12 1   
     4     1    13 1   
     5     2     3 1   
     6     2     7 1   
     7     2     8 2   
     8     3     9 ar  
     9     3    10 ar  
    10     4     5 ar  
    11     4     9 ar  
    12     4    14 1   
    13     5     6 ar  
    14     5    15 1   
    15     6    10 ar  
    16     6    16 1   
    17     7    17 1   
    18     8    18 1   
@<TRIPOS>SUBSTRUCTURE
     1 IQL         1 TEMP              0 ****  ****    0 ROOT
