@<TRIPOS>MOLECULE
IQL
   18    18     1     0     0
SMALL
No Charge or Current Charge


@<TRIPOS>ATOM
      1 C01         22.0710    44.6340    -9.9150 c3         1 IQL       0.233100
      2 C03         23.3140    42.4290   -10.1320 ce         1 IQL       0.578200
      3 C05         24.7090    41.8490   -10.0090 ca         1 IQL       0.043700
      4 C07         26.0580    40.0130    -9.5980 ca         1 IQL       0.118400
      5 C08         27.1990    40.8060    -9.7920 ca         1 IQL      -0.214000
      6 C09         27.0010    42.1600   -10.1040 ca         1 IQL       0.118400
      7 N02         23.1730    43.7840   -10.3970 nu         1 IQL      -0.919400
      8 N04         22.2640    41.7250    -9.9200 n2         1 IQL      -0.834100
      9 N06         24.8160    40.5280    -9.7050 nb         1 IQL      -0.175000
     10 N10         25.7630    42.6830   -10.2130 nb         1 IQL      -0.175000
     11 H1          22.2960    45.6940   -10.0970 h1         1 IQL       0.035367
     12 H2          21.1370    44.3850   -10.4370 h1         1 IQL       0.035367
     13 H3          21.9170    44.4930    -8.8370 h1         1 IQL       0.035367
     14 H4          26.1350    38.9550    -9.3530 h4         1 IQL       0.029100
     15 H5          28.1980    40.3880    -9.7050 ha         1 IQL       0.139000
     16 H6          27.8390    42.8350   -10.2690 h4         1 IQL       0.029100
     17 H7          24.0670    44.2520   -10.5520 hn         1 IQL       0.514000
     18 H8          22.5700    40.7630    -9.7110 hn         1 IQL       0.407400
@<TRIPOS>BOND
     1     1     7 1   
     2     1    11 1   
     3     1    12 1   
     4     1    13 1   
     5     2     3 1   
     6     2     7 1   
     7     2     8 2   
     8     3     9 ar  
     9     3    10 ar  
    10     4     5 ar  
    11     4     9 ar  
    12     4    14 1   
    13     5     6 ar  
    14     5    15 1   
    15     6    10 ar  
    16     6    16 1   
    17     7    17 1   
    18     8    18 1   
@<TRIPOS>SUBSTRUCTURE
     1 IQL         1 TEMP              0 ****  ****    0 ROOT
