@<TRIPOS>MOLECULE
IQM
   37    39     1     0     0
SMALL
abcg2


@<TRIPOS>ATOM
      1 C01         16.1950    35.4520   -20.6240 c3         1 IQM       0.140100
      2 C03         16.0670    33.0760   -21.2310 c3         1 IQM       0.198100
      3 C04         14.8830    33.2030   -22.1640 ca         1 IQM      -0.107300
      4 C05         15.0690    33.1800   -23.5500 ca         1 IQM      -0.105000
      5 C06         14.0040    33.3380   -24.4180 ca         1 IQM      -0.082000
      6 C07         13.5910    33.3910   -21.6770 ca         1 IQM      -0.105000
      7 C08         12.5130    33.5530   -22.5380 ca         1 IQM      -0.082000
      8 C09         12.7050    33.5290   -23.9240 ca         1 IQM      -0.041800
      9 C10         11.5930    33.6930   -24.8410 cc         1 IQM       0.103900
     10 C11         11.5070    33.7710   -26.1970 cd         1 IQM      -0.212200
     11 C12         10.1190    33.9310   -26.5220 ca         1 IQM      -0.094800
     12 C13          9.3990    34.0610   -27.7110 ca         1 IQM      -0.080000
     13 C14          8.0300    34.1950   -27.5920 ca         1 IQM       0.136000
     14 C16          7.3550    34.2100   -26.3800 ca         1 IQM      -0.069000
     15 C17          8.0550    34.0780   -25.1780 ca         1 IQM      -0.124600
     16 C18          7.2770    34.0930   -23.8970 c          1 IQM       0.621700
     17 C21          9.4350    33.9420   -25.2930 ca         1 IQM       0.076100
     18 F15          7.2930    34.3170   -28.7280 f          1 IQM      -0.178000
     19 N02         16.9040    34.2770   -21.1250 n7         1 IQM      -0.856400
     20 N19          7.9650    33.8670   -22.7630 nt         1 IQM      -0.600000
     21 O20          6.0630    34.3000   -23.9000 o          1 IQM      -0.609100
     22 O22         10.3320    33.8000   -24.2740 os         1 IQM      -0.206200
     23 H013        16.8870    36.2940   -20.5730 h1         1 IQM       0.033367
     24 H011        15.3330    35.7520   -21.2350 h1         1 IQM       0.033367
     25 H012        15.8310    35.2480   -19.6140 h1         1 IQM       0.033367
     26 H032        16.7080    32.2580   -21.5680 h1         1 IQM       0.061700
     27 H031        15.7120    32.8260   -20.2290 h1         1 IQM       0.061700
     28 H051        16.0650    33.0310   -23.9520 ha         1 IQM       0.117500
     29 H061        14.1760    33.3040   -25.4860 ha         1 IQM       0.119500
     30 H071        13.4240    33.4120   -20.6060 ha         1 IQM       0.117500
     31 H081        11.5210    33.7030   -22.1330 ha         1 IQM       0.119500
     32 H111        12.3290    33.7230   -26.8910 ha         1 IQM       0.218000
     33 H131         9.8760    34.0570   -28.6820 ha         1 IQM       0.142000
     34 H161         6.2810    34.3200   -26.3580 ha         1 IQM       0.163000
     35 H021        17.3040    34.4850   -22.0340 hn         1 IQM       0.408000
     36 H191         7.4660    33.8670   -21.8880 hn         1 IQM       0.324500
     37 H192         8.9560    33.6880   -22.7590 hn         1 IQM       0.324500
@<TRIPOS>BOND
     1     1    19 1   
     2     1    23 1   
     3     1    24 1   
     4     1    25 1   
     5     2     3 1   
     6     2    19 1   
     7     2    26 1   
     8     2    27 1   
     9     3     4 ar  
    10     3     6 ar  
    11     4     5 ar  
    12     4    28 1   
    13     5     8 ar  
    14     5    29 1   
    15     6     7 ar  
    16     6    30 1   
    17     7     8 ar  
    18     7    31 1   
    19     8     9 1   
    20     9    10 2   
    21     9    22 1   
    22    10    11 1   
    23    10    32 1   
    24    11    12 ar  
    25    11    17 ar  
    26    12    13 ar  
    27    12    33 1   
    28    13    14 ar  
    29    13    18 1   
    30    14    15 ar  
    31    14    34 1   
    32    15    16 1   
    33    15    17 ar  
    34    16    20 1   
    35    16    21 2   
    36    17    22 1   
    37    19    35 1   
    38    20    36 1   
    39    20    37 1   
@<TRIPOS>SUBSTRUCTURE
     1 IQM         1 TEMP              0 ****  ****    0 ROOT
