@<TRIPOS>MOLECULE
IQM
   37    39     1     0     0
SMALL
No Charge or Current Charge


@<TRIPOS>ATOM
      1 C01         16.3900    35.4810   -20.6580 c3         1 IQM       0.140100
      2 C03         16.1600    33.0580   -21.2550 c3         1 IQM       0.198100
      3 C04         14.9350    33.2210   -22.1500 ca         1 IQM      -0.107300
      4 C05         15.0500    33.0820   -23.5460 ca         1 IQM      -0.105000
      5 C06         13.9230    33.2300   -24.3730 ca         1 IQM      -0.082000
      6 C07         13.6750    33.5060   -21.5920 ca         1 IQM      -0.105000
      7 C08         12.5480    33.6550   -22.4190 ca         1 IQM      -0.082000
      8 C09         12.6580    33.5220   -23.8190 ca         1 IQM      -0.041800
      9 C10         11.4670    33.6800   -24.6630 cc         1 IQM       0.103900
     10 C11         11.4560    33.8350   -26.0320 cd         1 IQM      -0.212200
     11 C12         10.0890    33.9820   -26.4140 ca         1 IQM      -0.094800
     12 C13          9.4980    34.1670   -27.6670 ca         1 IQM      -0.080000
     13 C14          8.0960    34.2810   -27.7040 ca         1 IQM       0.136000
     14 C16          7.3340    34.2100   -26.5150 ca         1 IQM      -0.069000
     15 C17          7.9560    34.0220   -25.2500 ca         1 IQM      -0.124600
     16 C18          7.1070    33.9510   -24.0020 c          1 IQM       0.621700
     17 C21          9.3650    33.9110   -25.2440 ca         1 IQM       0.076100
     18 F15          7.4720    34.4610   -28.8890 f          1 IQM      -0.178000
     19 N02         16.9990    34.2760   -21.2610 n7         1 IQM      -0.856400
     20 N19          7.7140    33.7650   -22.8130 nt         1 IQM      -0.600000
     21 O20          5.8910    34.0560   -24.0290 o          1 IQM      -0.609100
     22 O22         10.1790    33.7280   -24.1360 os         1 IQM      -0.206200
     23 H013        17.0990    36.3200   -20.6740 h1         1 IQM       0.033367
     24 H011        15.4910    35.7900   -21.2080 h1         1 IQM       0.033367
     25 H012        16.1070    35.2960   -19.6130 h1         1 IQM       0.033367
     26 H032        16.7410    32.1970   -21.6160 h1         1 IQM       0.061700
     27 H031        15.8380    32.8130   -20.2330 h1         1 IQM       0.061700
     28 H051        16.0160    32.8550   -23.9930 ha         1 IQM       0.117500
     29 H061        14.0440    33.1080   -25.4460 ha         1 IQM       0.119500
     30 H071        13.5670    33.6170   -20.5150 ha         1 IQM       0.117500
     31 H081        11.5860    33.8790   -21.9640 ha         1 IQM       0.119500
     32 H111        12.3180    33.8610   -26.6910 ha         1 IQM       0.218000
     33 H131        10.0920    34.2210   -28.5750 ha         1 IQM       0.142000
     34 H161         6.2520    34.3030   -26.5850 ha         1 IQM       0.163000
     35 H021        17.2320    34.4900   -22.2390 hn         1 IQM       0.408000
     36 H191         7.1580    33.7160   -21.9730 hn         1 IQM       0.324500
     37 H192         8.7190    33.6760   -22.7770 hn         1 IQM       0.324500
@<TRIPOS>BOND
     1     1    19 1   
     2     1    23 1   
     3     1    24 1   
     4     1    25 1   
     5     2     3 1   
     6     2    19 1   
     7     2    26 1   
     8     2    27 1   
     9     3     4 ar  
    10     3     6 ar  
    11     4     5 ar  
    12     4    28 1   
    13     5     8 ar  
    14     5    29 1   
    15     6     7 ar  
    16     6    30 1   
    17     7     8 ar  
    18     7    31 1   
    19     8     9 1   
    20     9    10 2   
    21     9    22 1   
    22    10    11 1   
    23    10    32 1   
    24    11    12 ar  
    25    11    17 ar  
    26    12    13 ar  
    27    12    33 1   
    28    13    14 ar  
    29    13    18 1   
    30    14    15 ar  
    31    14    34 1   
    32    15    16 1   
    33    15    17 ar  
    34    16    20 1   
    35    16    21 2   
    36    17    22 1   
    37    19    35 1   
    38    20    36 1   
    39    20    37 1   
@<TRIPOS>SUBSTRUCTURE
     1 IQM         1 TEMP              0 ****  ****    0 ROOT
