@<TRIPOS>MOLECULE
IQN
   83    89     1     0     0
SMALL
No Charge or Current Charge


@<TRIPOS>ATOM
      1 C3         -20.8030     2.7460   -19.8200 ca         1 IQN      -0.073000
      2 C4         -21.5660     2.8970   -18.6430 ca         1 IQN      -0.119000
      3 C20        -15.3750     5.1450   -18.3870 ca         1 IQN      -0.072000
      4 C8         -19.2580     3.8720   -16.0940 cc         1 IQN       0.360800
      5 C19        -14.4750     4.0580   -18.4050 ca         1 IQN      -0.183000
      6 C9         -19.5500     3.5040   -17.4580 ca         1 IQN      -0.204900
      7 C10        -18.7450     3.3630   -18.6070 cp         1 IQN       0.027000
      8 C11        -17.2750     3.6090   -18.5400 cp         1 IQN      -0.035000
      9 C2         -19.4020     2.9780   -19.8140 ca         1 IQN      -0.077300
     10 C14        -14.9650     2.7370   -18.5060 ca         1 IQN       0.051000
     11 C5         -20.8920     3.2810   -17.4810 ca         1 IQN      -0.036200
     12 C12        -16.3610     2.5280   -18.5670 ca         1 IQN       0.188000
     13 C21        -16.7590     4.9230   -18.4500 ca         1 IQN       0.117000
     14 C18        -13.0750     4.2320   -18.3410 ca         1 IQN       0.445900
     15 C16        -12.7790     1.9590   -18.5010 ca         1 IQN       0.405300
     16 C31         -7.0500    10.1390   -15.3320 c3         1 IQN      -0.084100
     17 C30         -8.0620    10.9110   -16.2070 c3         1 IQN      -0.152400
     18 C38         -9.8330    -0.3450   -18.8020 c6         1 IQN      -0.085900
     19 C44        -10.5760     1.2950   -20.5690 c6         1 IQN      -0.085900
     20 C25        -12.4200     7.7200   -17.0580 c6         1 IQN      -0.077400
     21 C34        -11.0790     7.3320   -19.1860 c6         1 IQN      -0.077400
     22 C39        -10.3860    -1.4920   -19.6810 c6         1 IQN       0.164800
     23 C43        -11.1180     0.1080   -21.3970 c6         1 IQN       0.164800
     24 C27        -10.8660     9.6390   -17.9440 cy         1 IQN       0.110000
     25 C33         -9.8150     8.0140   -16.9880 cy         1 IQN       0.110000
     26 C24        -12.5470     6.1860   -16.8900 c6         1 IQN       0.221300
     27 C35        -11.2280     5.8060   -18.9710 c6         1 IQN       0.221300
     28 C37        -10.5920     0.9760   -19.0520 c6         1 IQN       0.190300
     29 C26        -11.1280     8.1010   -17.8380 cy         1 IQN      -0.092000
     30 C1         -18.6250     2.8170   -21.1160 c3         1 IQN      -0.047800
     31 C42         -9.8860    -3.5010   -21.9780 c3         1 IQN      -0.089100
     32 N7         -20.3560     3.8740   -15.3200 nd         1 IQN      -0.513100
     33 N15        -14.1000     1.7000   -18.5480 nb         1 IQN      -0.207000
     34 N17        -12.2360     3.1870   -18.3900 nb         1 IQN      -0.348000
     35 N6         -21.3720     3.5010   -16.2080 na         1 IQN      -0.075400
     36 N28         -9.9820     9.4880   -16.7330 nj         1 IQN      -0.431800
     37 N40        -10.3480    -1.1410   -21.1330 n3         1 IQN      -0.725600
     38 N23        -12.4730     5.4990   -18.2090 nh         1 IQN      -0.789300
     39 O32         -8.1350     9.8060   -18.2880 o          1 IQN      -0.610100
     40 O36        -11.9450     0.8620   -18.5440 os         1 IQN      -0.449300
     41 F13        -16.8360     1.2610   -18.6470 f          1 IQN      -0.146000
     42 Cl1        -17.8300     6.3240   -18.4330 cl         1 IQN      -0.189000
     43 H1         -21.3020     2.4510   -20.7400 ha         1 IQN       0.115000
     44 H2         -22.6390     2.7210   -18.6430 ha         1 IQN       0.121000
     45 H3         -15.0110     6.1680   -18.3350 ha         1 IQN       0.134000
     46 H4         -18.3190     4.1350   -15.6230 h4         1 IQN       0.050800
     47 H5          -6.5840    10.8100   -14.6010 hc         1 IQN       0.041033
     48 H6          -7.5490     9.3290   -14.7860 hc         1 IQN       0.041033
     49 H7          -6.2570     9.7000   -15.9510 hc         1 IQN       0.041033
     50 H8          -7.5330    11.7180   -16.7290 hc         1 IQN       0.061200
     51 H9          -8.8190    11.3270   -15.5320 hc         1 IQN       0.061200
     52 H10         -9.9010    -0.6210   -17.7420 hc         1 IQN       0.059200
     53 H11         -8.7660    -0.2030   -19.0180 hc         1 IQN       0.059200
     54 H12         -9.5470     1.5150   -20.8840 hc         1 IQN       0.059200
     55 H13        -11.1600     2.1990   -20.7850 hc         1 IQN       0.059200
     56 H14        -12.4370     8.1990   -16.0700 hc         1 IQN       0.061200
     57 H15        -13.3010     8.0950   -17.5960 hc         1 IQN       0.061200
     58 H16        -10.1410     7.5390   -19.7180 hc         1 IQN       0.061200
     59 H17        -11.8890     7.6810   -19.8400 hc         1 IQN       0.061200
     60 H18        -11.4160    -1.7220   -19.3710 h1         1 IQN       0.040200
     61 H19         -9.7820    -2.3890   -19.4800 h1         1 IQN       0.040200
     62 H20        -11.0600     0.3720   -22.4630 h1         1 IQN       0.040200
     63 H21        -12.1820    -0.0410   -21.1600 h1         1 IQN       0.040200
     64 H22        -10.4000     9.9540   -18.8860 h1         1 IQN       0.058200
     65 H23        -11.7500    10.2560   -17.7490 h1         1 IQN       0.058200
     66 H24         -9.9080     7.4140   -16.0760 h1         1 IQN       0.058200
     67 H25         -8.9310     7.6910   -17.5520 h1         1 IQN       0.058200
     68 H26        -13.5010     5.9620   -16.3890 h1         1 IQN       0.057950
     69 H27        -11.7440     5.8220   -16.2320 h1         1 IQN       0.057950
     70 H28        -11.2490     5.3140   -19.9550 h1         1 IQN       0.057950
     71 H29        -10.3480     5.4250   -18.4310 h1         1 IQN       0.057950
     72 H30        -10.0740     1.7760   -18.5030 h1         1 IQN       0.066700
     73 H31        -17.9270     3.6480   -21.2680 hc         1 IQN       0.046367
     74 H32        -18.0450     1.8860   -21.1150 hc         1 IQN       0.046367
     75 H33        -19.2920     2.7900   -21.9870 hc         1 IQN       0.046367
     76 H34        -10.1960    -4.2100   -22.7540 hc         1 IQN       0.037033
     77 H35         -8.8380    -3.2340   -22.1570 hc         1 IQN       0.037033
     78 H36         -9.9590    -4.0120   -21.0110 hc         1 IQN       0.037033
     79 H37        -10.7880    -1.8900   -23.0610 h1         1 IQN       0.029200
     80 H38        -11.8120    -2.5430   -21.7800 h1         1 IQN       0.029200
     81 H39        -22.3420     3.4140   -15.9070 hn         1 IQN       0.376000
     82 C41        -10.7820    -2.2470   -22.0220 c3         1 IQN       0.167800
     83 C29         -8.7360     9.9890   -17.2310 c          1 IQN       0.610100
@<TRIPOS>BOND
     1     1     2 ar  
     2     1     9 ar  
     3     1    43 1   
     4     2    11 ar  
     5     2    44 1   
     6     3     5 ar  
     7     3    13 ar  
     8     3    45 1   
     9     4     6 1   
    10     4    32 2   
    11     4    46 1   
    12     5    10 ar  
    13     5    14 ar  
    14     6     7 ar  
    15     6    11 ar  
    16     7     8 1   
    17     7     9 ar  
    18     8    12 ar  
    19     8    13 ar  
    20     9    30 1   
    21    10    12 ar  
    22    10    33 ar  
    23    11    35 1   
    24    12    41 1   
    25    13    42 1   
    26    14    34 ar  
    27    14    38 1   
    28    15    33 ar  
    29    15    34 ar  
    30    15    40 1   
    31    16    17 1   
    32    16    47 1   
    33    16    48 1   
    34    16    49 1   
    35    17    50 1   
    36    17    51 1   
    37    17    83 1   
    38    18    22 1   
    39    18    28 1   
    40    18    52 1   
    41    18    53 1   
    42    19    23 1   
    43    19    28 1   
    44    19    54 1   
    45    19    55 1   
    46    20    26 1   
    47    20    29 1   
    48    20    56 1   
    49    20    57 1   
    50    21    27 1   
    51    21    29 1   
    52    21    58 1   
    53    21    59 1   
    54    22    37 1   
    55    22    60 1   
    56    22    61 1   
    57    23    37 1   
    58    23    62 1   
    59    23    63 1   
    60    24    29 1   
    61    24    36 1   
    62    24    64 1   
    63    24    65 1   
    64    25    29 1   
    65    25    36 1   
    66    25    66 1   
    67    25    67 1   
    68    26    38 1   
    69    26    68 1   
    70    26    69 1   
    71    27    38 1   
    72    27    70 1   
    73    27    71 1   
    74    28    40 1   
    75    28    72 1   
    76    30    73 1   
    77    30    74 1   
    78    30    75 1   
    79    31    76 1   
    80    31    77 1   
    81    31    78 1   
    82    31    82 1   
    83    32    35 1   
    84    35    81 1   
    85    36    83 1   
    86    37    82 1   
    87    39    83 2   
    88    79    82 1   
    89    80    82 1   
@<TRIPOS>SUBSTRUCTURE
     1 IQN         1 TEMP              0 ****  ****    0 ROOT
