@<TRIPOS>MOLECULE
IQN
   83    89     1     0     0
SMALL
abcg2


@<TRIPOS>ATOM
      1 C3         -20.7350     2.8030   -19.6040 ca         1 IQN      -0.073000
      2 C4         -21.5260     3.0410   -18.4990 ca         1 IQN      -0.119000
      3 C20        -15.2990     5.1410   -18.4250 ca         1 IQN      -0.072000
      4 C8         -19.2160     4.1300   -15.9800 cc         1 IQN       0.360800
      5 C19        -14.4320     4.0420   -18.2820 ca         1 IQN      -0.183000
      6 C9         -19.4790     3.6820   -17.3060 ca         1 IQN      -0.204900
      7 C10        -18.7000     3.4320   -18.4510 cp         1 IQN       0.027000
      8 C11        -17.2330     3.6540   -18.4010 cp         1 IQN      -0.035000
      9 C2         -19.3300     2.9880   -19.6060 ca         1 IQN      -0.077300
     10 C14        -14.9560     2.7250   -18.3020 ca         1 IQN       0.051000
     11 C5         -20.8770     3.4850   -17.3420 ca         1 IQN      -0.036200
     12 C12        -16.3630     2.5950   -18.3080 ca         1 IQN       0.188000
     13 C21        -16.6550     4.9410   -18.4850 ca         1 IQN       0.117000
     14 C18        -12.9870     4.1230   -18.2140 ca         1 IQN       0.445900
     15 C16        -12.8900     1.8470   -18.5030 ca         1 IQN       0.405300
     16 C31         -6.9890     9.9370   -16.0790 c3         1 IQN      -0.084100
     17 C30         -8.3980    10.4650   -15.7830 c3         1 IQN      -0.152400
     18 C38        -10.1400    -0.5160   -18.7570 c6         1 IQN      -0.085900
     19 C44        -10.4770     1.3390   -20.3960 c6         1 IQN      -0.085900
     20 C25        -12.5700     7.7140   -17.6860 c6         1 IQN      -0.077400
     21 C34        -10.6180     6.7620   -18.9310 c6         1 IQN      -0.077400
     22 C39        -10.5720    -1.4960   -19.8430 c6         1 IQN       0.164800
     23 C43        -10.9090     0.2920   -21.4150 c6         1 IQN       0.164800
     24 C27        -10.7660     9.3280   -18.5970 cy         1 IQN       0.110000
     25 C33        -10.1830     8.2240   -16.8310 cy         1 IQN       0.110000
     26 C24        -12.7870     6.3320   -17.0860 c6         1 IQN       0.221300
     27 C35        -10.8990     5.3970   -18.3050 c6         1 IQN       0.221300
     28 C37        -10.7230     0.8720   -18.9670 c6         1 IQN       0.190300
     29 C26        -11.1030     7.9100   -18.0550 cy         1 IQN      -0.092000
     30 C1         -18.5460     2.7010   -20.8600 c3         1 IQN      -0.047800
     31 C42         -9.7020    -3.1950   -22.2210 c3         1 IQN      -0.089100
     32 N7         -20.3330     4.1990   -15.2760 nd         1 IQN      -0.513100
     33 N15        -14.1810     1.6150   -18.3820 nb         1 IQN      -0.207000
     34 N17        -12.2630     3.0250   -18.4000 nb         1 IQN      -0.348000
     35 N6         -21.3330     3.8100   -16.1010 na         1 IQN      -0.075400
     36 N28         -9.9560     9.5550   -17.4010 nj         1 IQN      -0.431800
     37 N40        -10.2450    -0.9900   -21.1770 n3         1 IQN      -0.725600
     38 N23        -12.3280     5.2870   -18.0090 nh         1 IQN      -0.789300
     39 O32         -9.1430    11.6180   -17.7670 o          1 IQN      -0.610100
     40 O36        -12.1500     0.7500   -18.7060 os         1 IQN      -0.449300
     41 F13        -16.8700     1.3460   -18.2620 f          1 IQN      -0.146000
     42 CL1        -17.7010     6.3230   -18.7150 cl         1 IQN      -0.189000
     43 H1         -21.2030     2.4620   -20.5190 ha         1 IQN       0.115000
     44 H2         -22.5970     2.8940   -18.5280 ha         1 IQN       0.121000
     45 H3         -14.9130     6.1400   -18.5370 ha         1 IQN       0.134000
     46 H4         -18.2720     4.3960   -15.5330 h4         1 IQN       0.050800
     47 H5          -6.4030     9.8830   -15.1600 hc         1 IQN       0.041033
     48 H6          -7.0270     8.9380   -16.5160 hc         1 IQN       0.041033
     49 H7          -6.4690    10.5960   -16.7770 hc         1 IQN       0.041033
     50 H8          -8.3400    11.4540   -15.3280 hc         1 IQN       0.061200
     51 H9          -8.9050     9.8010   -15.0810 hc         1 IQN       0.061200
     52 H10        -10.4300    -0.8950   -17.7750 hc         1 IQN       0.059200
     53 H11         -9.0510    -0.4230   -18.7670 hc         1 IQN       0.059200
     54 H12         -9.4060     1.5290   -20.5020 hc         1 IQN       0.059200
     55 H13        -10.9970     2.2800   -20.5810 hc         1 IQN       0.059200
     56 H14        -12.8830     8.4760   -16.9680 hc         1 IQN       0.061200
     57 H15        -13.1870     7.8290   -18.5820 hc         1 IQN       0.061200
     58 H16         -9.5440     6.8560   -19.1130 hc         1 IQN       0.061200
     59 H17        -11.1220     6.8170   -19.9000 hc         1 IQN       0.061200
     60 H18        -11.6550    -1.6930   -19.7590 h1         1 IQN       0.040200
     61 H19        -10.0610    -2.4450   -19.6870 h1         1 IQN       0.040200
     62 H20        -10.6500     0.6320   -22.4190 h1         1 IQN       0.040200
     63 H21        -12.0070     0.1780   -21.3860 h1         1 IQN       0.040200
     64 H22        -10.1850     9.3440   -19.5220 h1         1 IQN       0.058200
     65 H23        -11.6150    10.0080   -18.6880 h1         1 IQN       0.058200
     66 H24        -10.6840     8.2400   -15.8610 h1         1 IQN       0.058200
     67 H25         -9.2800     7.6160   -16.7640 h1         1 IQN       0.058200
     68 H26        -13.8210     6.1680   -16.8090 h1         1 IQN       0.057950
     69 H27        -12.1940     6.2350   -16.1680 h1         1 IQN       0.057950
     70 H28        -10.6190     4.5980   -18.9830 h1         1 IQN       0.057950
     71 H29        -10.3200     5.2700   -17.3830 h1         1 IQN       0.057950
     72 H30        -10.3080     1.5810   -18.2530 h1         1 IQN       0.066700
     73 H31        -17.8450     3.5060   -21.0870 hc         1 IQN       0.046367
     74 H32        -17.9620     1.7830   -20.7590 hc         1 IQN       0.046367
     75 H33        -19.2130     2.5790   -21.7130 hc         1 IQN       0.046367
     76 H34         -9.9230    -3.8080   -23.0970 hc         1 IQN       0.037033
     77 H35         -8.6460    -2.9200   -22.2530 hc         1 IQN       0.037033
     78 H36         -9.8690    -3.8120   -21.3370 hc         1 IQN       0.037033
     79 H37        -10.4520    -1.4340   -23.1840 h1         1 IQN       0.029200
     80 H38        -11.6410    -2.2420   -22.1670 h1         1 IQN       0.029200
     81 H39        -22.2810     3.7840   -15.7610 hn         1 IQN       0.376000
     82 C41        -10.5780    -1.9490   -22.2290 c3         1 IQN       0.167800
     83 C29         -9.2020    10.6040   -17.0580 c          1 IQN       0.610100
@<TRIPOS>BOND
     1     1     2 ar  
     2     1     9 ar  
     3     1    43 1   
     4     2    11 ar  
     5     2    44 1   
     6     3     5 ar  
     7     3    13 ar  
     8     3    45 1   
     9     4     6 1   
    10     4    32 2   
    11     4    46 1   
    12     5    10 ar  
    13     5    14 ar  
    14     6     7 ar  
    15     6    11 ar  
    16     7     8 1   
    17     7     9 ar  
    18     8    12 ar  
    19     8    13 ar  
    20     9    30 1   
    21    10    12 ar  
    22    10    33 ar  
    23    11    35 1   
    24    12    41 1   
    25    13    42 1   
    26    14    34 ar  
    27    14    38 1   
    28    15    33 ar  
    29    15    34 ar  
    30    15    40 1   
    31    16    17 1   
    32    16    47 1   
    33    16    48 1   
    34    16    49 1   
    35    17    50 1   
    36    17    51 1   
    37    17    83 1   
    38    18    22 1   
    39    18    28 1   
    40    18    52 1   
    41    18    53 1   
    42    19    23 1   
    43    19    28 1   
    44    19    54 1   
    45    19    55 1   
    46    20    26 1   
    47    20    29 1   
    48    20    56 1   
    49    20    57 1   
    50    21    27 1   
    51    21    29 1   
    52    21    58 1   
    53    21    59 1   
    54    22    37 1   
    55    22    60 1   
    56    22    61 1   
    57    23    37 1   
    58    23    62 1   
    59    23    63 1   
    60    24    29 1   
    61    24    36 1   
    62    24    64 1   
    63    24    65 1   
    64    25    29 1   
    65    25    36 1   
    66    25    66 1   
    67    25    67 1   
    68    26    38 1   
    69    26    68 1   
    70    26    69 1   
    71    27    38 1   
    72    27    70 1   
    73    27    71 1   
    74    28    40 1   
    75    28    72 1   
    76    30    73 1   
    77    30    74 1   
    78    30    75 1   
    79    31    76 1   
    80    31    77 1   
    81    31    78 1   
    82    31    82 1   
    83    32    35 1   
    84    35    81 1   
    85    36    83 1   
    86    37    82 1   
    87    39    83 2   
    88    79    82 1   
    89    80    82 1   
@<TRIPOS>SUBSTRUCTURE
     1 IQN         1 TEMP              0 ****  ****    0 ROOT
