@<TRIPOS>MOLECULE
IQO
   71    78     1     0     0
SMALL
No Charge or Current Charge


@<TRIPOS>ATOM
      1 C4          -7.6290     0.4530     0.4410 ca         1 IQO       0.006600
      2 C6          -9.7540    -0.3940     1.2940 ca         1 IQO      -0.112000
      3 C7         -10.0290     0.8960     1.7980 ca         1 IQO      -0.109000
      4 C8          -9.0770     1.9390     1.6670 ca         1 IQO      -0.112000
      5 C13         -5.3350     0.6690    -0.6890 c6         1 IQO       0.140700
      6 C15         -3.9670     1.4010    -2.6950 c6         1 IQO       0.169800
      7 C17         -0.2190     1.4620    -1.8770 ca         1 IQO      -0.078300
      8 C20          2.2680     0.6820    -0.7110 cp         1 IQO      -0.150500
      9 C21          1.4960    -0.2280    -1.4810 ca         1 IQO      -0.082000
     10 C22          0.2720     0.1560    -2.0530 ca         1 IQO      -0.105000
     11 C24          3.9830    -1.1700     0.1320 cq         1 IQO       0.379500
     12 C28          6.7660     1.9180     0.2760 ca         1 IQO      -0.094000
     13 C1          -6.6700    -1.5070    -0.3600 c          1 IQO       0.592000
     14 N2          -7.9280    -1.7240     0.1250 ns         1 IQO      -0.504600
     15 C3          -8.5340    -0.5750     0.6360 ca         1 IQO       0.005600
     16 N5          -6.4600    -0.1280    -0.1480 n          1 IQO      -0.294000
     17 C9          -7.8460     1.7170     1.0090 ca         1 IQO      -0.111000
     18 O10         -5.9250    -2.3330    -0.8590 o          1 IQO      -0.564000
     19 C11         -2.8880     1.3100    -0.4780 c6         1 IQO       0.169800
     20 C12         -4.0220     0.4200     0.0810 c6         1 IQO      -0.093400
     21 C14         -5.1280     0.5050    -2.2120 c6         1 IQO      -0.093400
     22 C18          0.5340     2.3820    -1.1250 ca         1 IQO      -0.105000
     23 C19          1.7590     1.9990    -0.5530 ca         1 IQO      -0.082000
     24 N23          5.3000    -1.4930     0.0990 nb         1 IQO      -0.631000
     25 C25          3.5750     0.2580    -0.0900 cp         1 IQO       0.392500
     26 N26          4.4850     1.2530     0.0820 nb         1 IQO      -0.643000
     27 C27          5.7910     0.9030     0.1750 ca         1 IQO       0.244000
     28 C29          8.1110     1.5420     0.3300 ca         1 IQO      -0.056200
     29 C30          8.5190     0.2450     0.2890 ca         1 IQO       0.076400
     30 C31          7.5830    -0.7930     0.1980 ca         1 IQO      -0.010000
     31 C32          6.2050    -0.4790     0.1480 ca         1 IQO       0.206000
     32 C33         10.3210     1.4320     0.4330 cc         1 IQO       0.443700
     33 N34          9.2350     2.3040     0.4200 na         1 IQO      -0.337600
     34 N35          9.9070     0.1490     0.3540 nd         1 IQO      -0.576100
     35 C36          3.0560    -2.2650     0.6220 cq         1 IQO      -0.151500
     36 C37          3.3910    -3.6320     0.4670 ca         1 IQO      -0.078000
     37 C38          2.5220    -4.6390     0.9220 ca         1 IQO      -0.117500
     38 C39          1.3100    -4.3010     1.5400 ca         1 IQO      -0.095000
     39 C40          0.9680    -2.9510     1.7060 ca         1 IQO      -0.117500
     40 C41          1.8330    -1.9400     1.2540 ca         1 IQO      -0.078000
     41 N42         -2.7120     1.1160    -1.9470 n3         1 IQO      -0.720600
     42 H6         -10.4530    -1.2170     1.4300 ha         1 IQO       0.122000
     43 H7         -10.9660     1.0820     2.3190 ha         1 IQO       0.116000
     44 H8          -9.2900     2.9170     2.0940 ha         1 IQO       0.116000
     45 H13         -5.5890     1.7270    -0.5330 h1         1 IQO       0.049700
     46 H15         -3.8160     1.2290    -3.7710 h1         1 IQO       0.033700
     47 H15A        -4.2510     2.4570    -2.5730 h1         1 IQO       0.033700
     48 H21          1.8480    -1.2440    -1.6450 ha         1 IQO       0.123000
     49 H22         -0.3020    -0.5640    -2.6320 ha         1 IQO       0.122500
     50 HN2         -8.3560    -2.6440     0.1200 hn         1 IQO       0.467000
     51 H9          -7.1010     2.5060     0.9420 ha         1 IQO       0.121000
     52 H11         -3.1170     2.3640    -0.2600 h1         1 IQO       0.033700
     53 H11A        -1.9620     1.0630     0.0600 h1         1 IQO       0.033700
     54 H12         -4.1640     0.6290     1.1490 hc         1 IQO       0.066700
     55 H12A        -3.7320    -0.6350    -0.0020 hc         1 IQO       0.066700
     56 H14         -4.8990    -0.5390    -2.4620 hc         1 IQO       0.066700
     57 H14A        -6.0490     0.7670    -2.7490 hc         1 IQO       0.066700
     58 H18          0.1680     3.3960    -0.9780 ha         1 IQO       0.122500
     59 H19          2.3130     2.7320     0.0300 ha         1 IQO       0.123000
     60 H31          7.9120    -1.8270     0.1770 ha         1 IQO       0.150000
     61 H33         11.3470     1.7770     0.5000 h5         1 IQO       0.063800
     62 HN34         9.2900     3.3140     0.4680 hn         1 IQO       0.362000
     63 H37          4.3210    -3.9290    -0.0140 ha         1 IQO       0.121500
     64 H38          2.7910    -5.6850     0.7920 ha         1 IQO       0.114000
     65 H39          0.6380    -5.0820     1.8900 ha         1 IQO       0.114000
     66 H40          0.0300    -2.6860     2.1890 ha         1 IQO       0.114000
     67 H41          1.5400    -0.9040     1.4120 ha         1 IQO       0.121500
     68 C16         -1.5560     1.8690    -2.4920 c3         1 IQO       0.215100
     69 H28          6.4750     2.9650     0.2990 ha         1 IQO       0.138000
     70 H16         -1.7090     2.9470    -2.3450 h1         1 IQO       0.038700
     71 H16A        -1.4870     1.7040    -3.5760 h1         1 IQO       0.038700
@<TRIPOS>BOND
     1     1    15 ar  
     2     1    16 1   
     3     1    17 ar  
     4     2     3 ar  
     5     2    15 ar  
     6     2    42 1   
     7     3     4 ar  
     8     3    43 1   
     9     4    17 ar  
    10     4    44 1   
    11     5    16 1   
    12     5    20 1   
    13     5    21 1   
    14     5    45 1   
    15     6    21 1   
    16     6    41 1   
    17     6    46 1   
    18     6    47 1   
    19     7    10 ar  
    20     7    22 ar  
    21     7    68 1   
    22     8     9 ar  
    23     8    23 ar  
    24     8    25 1   
    25     9    10 ar  
    26     9    48 1   
    27    10    49 1   
    28    11    24 1   
    29    11    25 2   
    30    11    35 1   
    31    12    27 ar  
    32    12    28 ar  
    33    12    69 1   
    34    13    14 1   
    35    13    16 1   
    36    13    18 2   
    37    14    15 1   
    38    14    50 1   
    39    17    51 1   
    40    19    20 1   
    41    19    41 1   
    42    19    52 1   
    43    19    53 1   
    44    20    54 1   
    45    20    55 1   
    46    21    56 1   
    47    21    57 1   
    48    22    23 ar  
    49    22    58 1   
    50    23    59 1   
    51    24    31 ar  
    52    25    26 ar  
    53    26    27 ar  
    54    27    31 ar  
    55    28    29 ar  
    56    28    33 1   
    57    29    30 ar  
    58    29    34 1   
    59    30    31 ar  
    60    30    60 1   
    61    32    33 1   
    62    32    34 2   
    63    32    61 1   
    64    33    62 1   
    65    35    36 1   
    66    35    40 2   
    67    36    37 ar  
    68    36    63 1   
    69    37    38 ar  
    70    37    64 1   
    71    38    39 ar  
    72    38    65 1   
    73    39    40 ar  
    74    39    66 1   
    75    40    67 1   
    76    41    68 1   
    77    68    70 1   
    78    68    71 1   
@<TRIPOS>SUBSTRUCTURE
     1 IQO         1 TEMP              0 ****  ****    0 ROOT
