@<TRIPOS>MOLECULE
IQO
   71    78     1     0     0
SMALL
abcg2


@<TRIPOS>ATOM
      1 C4          -7.2580    -0.1550     0.4150 ca         1 IQO       0.006600
      2 C6          -9.1690    -1.4500     1.1710 ca         1 IQO      -0.112000
      3 C7          -9.6820    -0.2790     1.7260 ca         1 IQO      -0.109000
      4 C8          -8.9940     0.9260     1.6230 ca         1 IQO      -0.112000
      5 C13         -5.0770     0.5760    -0.6120 c6         1 IQO       0.140700
      6 C15         -3.8670     1.8650    -2.3650 c6         1 IQO       0.169800
      7 C17         -0.1920     1.9420    -1.7000 ca         1 IQO      -0.078300
      8 C20          2.2940     0.9530    -0.8610 cp         1 IQO      -0.150500
      9 C21          1.4040     0.1360    -1.5590 ca         1 IQO      -0.082000
     10 C22          0.1820     0.6280    -1.9780 ca         1 IQO      -0.105000
     11 C24          3.6870    -0.8020     0.3650 cq         1 IQO       0.379500
     12 C28          7.0030     1.4440    -0.5490 ca         1 IQO      -0.094000
     13 C1          -6.0400    -1.7480    -0.6240 c          1 IQO       0.592000
     14 N2          -7.1860    -2.3090    -0.1220 ns         1 IQO      -0.504600
     15 C3          -7.9540    -1.3650     0.5190 ca         1 IQO       0.005600
     16 N5          -6.0930    -0.4130    -0.2870 n          1 IQO      -0.294000
     17 C9          -7.7680     1.0060     0.9650 ca         1 IQO      -0.111000
     18 O10         -5.1580    -2.3220    -1.2400 o          1 IQO      -0.564000
     19 C11         -2.7350     1.3740    -0.3110 c6         1 IQO       0.169800
     20 C12         -3.7310     0.2790     0.0390 c6         1 IQO      -0.093400
     21 C14         -4.9110     0.7880    -2.1130 c6         1 IQO      -0.093400
     22 C18          0.7070     2.7610    -1.0290 ca         1 IQO      -0.105000
     23 C19          1.9440     2.2780    -0.6250 ca         1 IQO      -0.082000
     24 N23          4.8500    -1.2790     0.7040 nb         1 IQO      -0.631000
     25 C25          3.5870     0.4330    -0.3730 cp         1 IQO       0.392500
     26 N26          4.6480     1.1400    -0.6400 nb         1 IQO      -0.643000
     27 C27          5.8630     0.6790    -0.2600 ca         1 IQO       0.244000
     28 C29          8.2100     0.9100    -0.1720 ca         1 IQO      -0.056200
     29 C30          8.3360    -0.3520     0.4780 ca         1 IQO       0.076400
     30 C31          7.2200    -1.1020     0.7680 ca         1 IQO      -0.010000
     31 C32          5.9700    -0.5820     0.4000 ca         1 IQO       0.206000
     32 C33         10.3020     0.4150     0.2600 cc         1 IQO       0.443700
     33 N34          9.4970     1.3580    -0.2880 na         1 IQO      -0.337600
     34 N35          9.6650    -0.6170     0.7270 nd         1 IQO      -0.576100
     35 C36          2.5010    -1.5760     0.7930 cq         1 IQO      -0.151500
     36 C37          2.5010    -2.9630     0.6520 ca         1 IQO      -0.078000
     37 C38          1.4080    -3.7120     1.0630 ca         1 IQO      -0.117500
     38 C39          0.3090    -3.0850     1.6360 ca         1 IQO      -0.095000
     39 C40          0.3110    -1.7060     1.7980 ca         1 IQO      -0.117500
     40 C41          1.3970    -0.9550     1.3770 ca         1 IQO      -0.078000
     41 N42         -2.6000     1.5150    -1.7500 n3         1 IQO      -0.720600
     42 H6          -9.7000    -2.3880     1.2510 ha         1 IQO       0.122000
     43 H7         -10.6310    -0.3120     2.2440 ha         1 IQO       0.116000
     44 H8          -9.4140     1.8210     2.0620 ha         1 IQO       0.116000
     45 H13         -5.4430     1.5150    -0.1900 h1         1 IQO       0.049700
     46 H15         -3.7140     1.9770    -3.4410 h1         1 IQO       0.033700
     47 H15A        -4.2450     2.8360    -1.9980 h1         1 IQO       0.033700
     48 H21          1.6650    -0.8910    -1.7760 ha         1 IQO       0.123000
     49 H22         -0.5050    -0.0210    -2.5070 ha         1 IQO       0.122500
     50 HN2         -7.4100    -3.2850    -0.2280 hn         1 IQO       0.467000
     51 H9          -7.2460     1.9510     0.8930 ha         1 IQO       0.121000
     52 H11         -3.0470     2.3250     0.1580 h1         1 IQO       0.033700
     53 H11A        -1.7640     1.1170     0.1150 h1         1 IQO       0.033700
     54 H12         -3.8440     0.2230     1.1230 hc         1 IQO       0.066700
     55 H12A        -3.3460    -0.6820    -0.3070 hc         1 IQO       0.066700
     56 H14         -4.5980    -0.1400    -2.5940 hc         1 IQO       0.066700
     57 H14A        -5.8620     1.0900    -2.5570 hc         1 IQO       0.066700
     58 H18          0.4350     3.7840    -0.8000 ha         1 IQO       0.122500
     59 H19          2.6250     2.9250    -0.0850 ha         1 IQO       0.123000
     60 H31          7.2840    -2.0580     1.2700 ha         1 IQO       0.150000
     61 H33         11.3730     0.5470     0.2850 h5         1 IQO       0.063800
     62 HN34         9.8010     2.2280    -0.6950 hn         1 IQO       0.362000
     63 H37          3.3550    -3.4540     0.2040 ha         1 IQO       0.121500
     64 H38          1.4150    -4.7870     0.9350 ha         1 IQO       0.114000
     65 H39         -0.5440    -3.6690     1.9580 ha         1 IQO       0.114000
     66 H40         -0.5370    -1.2110     2.2530 ha         1 IQO       0.114000
     67 H41          1.3830     0.1180     1.5140 ha         1 IQO       0.121500
     68 C16         -1.5500     2.4450    -2.1130 c3         1 IQO       0.215100
     69 H28          6.9090     2.3980    -1.0500 ha         1 IQO       0.138000
     70 H16         -1.7140     3.4500    -1.6890 h1         1 IQO       0.038700
     71 H16A        -1.5720     2.5660    -3.2010 h1         1 IQO       0.038700
@<TRIPOS>BOND
     1     1    15 ar  
     2     1    16 1   
     3     1    17 ar  
     4     2     3 ar  
     5     2    15 ar  
     6     2    42 1   
     7     3     4 ar  
     8     3    43 1   
     9     4    17 ar  
    10     4    44 1   
    11     5    16 1   
    12     5    20 1   
    13     5    21 1   
    14     5    45 1   
    15     6    21 1   
    16     6    41 1   
    17     6    46 1   
    18     6    47 1   
    19     7    10 ar  
    20     7    22 ar  
    21     7    68 1   
    22     8     9 ar  
    23     8    23 ar  
    24     8    25 1   
    25     9    10 ar  
    26     9    48 1   
    27    10    49 1   
    28    11    24 1   
    29    11    25 2   
    30    11    35 1   
    31    12    27 ar  
    32    12    28 ar  
    33    12    69 1   
    34    13    14 1   
    35    13    16 1   
    36    13    18 2   
    37    14    15 1   
    38    14    50 1   
    39    17    51 1   
    40    19    20 1   
    41    19    41 1   
    42    19    52 1   
    43    19    53 1   
    44    20    54 1   
    45    20    55 1   
    46    21    56 1   
    47    21    57 1   
    48    22    23 ar  
    49    22    58 1   
    50    23    59 1   
    51    24    31 ar  
    52    25    26 ar  
    53    26    27 ar  
    54    27    31 ar  
    55    28    29 ar  
    56    28    33 1   
    57    29    30 ar  
    58    29    34 1   
    59    30    31 ar  
    60    30    60 1   
    61    32    33 1   
    62    32    34 2   
    63    32    61 1   
    64    33    62 1   
    65    35    36 1   
    66    35    40 2   
    67    36    37 ar  
    68    36    63 1   
    69    37    38 ar  
    70    37    64 1   
    71    38    39 ar  
    72    38    65 1   
    73    39    40 ar  
    74    39    66 1   
    75    40    67 1   
    76    41    68 1   
    77    68    70 1   
    78    68    71 1   
@<TRIPOS>SUBSTRUCTURE
     1 IQO         1 TEMP              0 ****  ****    0 ROOT
