@<TRIPOS>MOLECULE
IQP
   37    39     1     0     0
SMALL
No Charge or Current Charge


@<TRIPOS>ATOM
      1 C1          -0.7470     0.4880     0.7970 ca         1 IQP      -0.255500
      2 C2          -2.1380     0.4200     1.0310 ca         1 IQP       0.015000
      3 C3          -2.6360    -0.0930     2.2390 ca         1 IQP      -0.144000
      4 C4          -1.7550    -0.5390     3.2320 ca         1 IQP      -0.026000
      5 C5          -0.3670    -0.4690     3.0180 ca         1 IQP      -0.125000
      6 C6           0.5200    -0.9140     4.0170 ca         1 IQP       0.368900
      7 N7           1.8640    -0.8780     3.8860 nb         1 IQP      -0.663000
      8 C8           2.3630    -0.3860     2.7310 ca         1 IQP       0.340900
      9 C9           1.5580     0.0800     1.6810 ca         1 IQP      -0.151000
     10 C10          0.1510     0.0450     1.8070 ca         1 IQP       0.077000
     11 S           -0.1950     1.1580    -0.7910 sy         1 IQP       1.149600
     12 O1           0.7100     2.2710    -0.4830 o          1 IQP      -0.549000
     13 O2          -1.3350     1.3550    -1.6930 o          1 IQP      -0.549000
     14 N1           0.7990    -0.0780    -1.4490 n3         1 IQP      -0.749500
     15 C7           0.1590    -1.3200    -2.0060 c6         1 IQP       0.218500
     16 CM2         -0.8680    -2.0170    -1.0760 c3         1 IQP      -0.115100
     17 C11         -0.4240    -1.1100    -3.4520 c6         1 IQP       0.124800
     18 N4           0.5760    -0.5350    -4.4040 n7         1 IQP      -0.863400
     19 C12          1.2530     0.6690    -3.8390 c6         1 IQP       0.125800
     20 C13          1.8390     0.4010    -2.4140 c6         1 IQP       0.193800
     21 H2          -2.8470     0.7610     0.2780 ha         1 IQP       0.143000
     22 H3          -3.7100    -0.1430     2.4040 ha         1 IQP       0.124000
     23 H4          -2.1500    -0.9360     4.1650 ha         1 IQP       0.120000
     24 H6           0.1430    -1.3140     4.9580 h4         1 IQP       0.019100
     25 H8           3.4490    -0.3650     2.6450 h4         1 IQP       0.022100
     26 H9           2.0540     0.4560     0.7950 ha         1 IQP       0.136000
     27 H1           0.9630    -2.0620    -2.1250 h1         1 IQP       0.075700
     28 HM21        -1.1250    -3.0090    -1.4650 hc         1 IQP       0.053700
     29 HM22        -0.4600    -2.1610    -0.0690 hc         1 IQP       0.053700
     30 HM23        -1.8030    -1.4510    -1.0010 hc         1 IQP       0.053700
     31 H3'1        -0.7750    -2.0770    -3.8430 h1         1 IQP       0.051700
     32 H3'2        -1.3030    -0.4520    -3.4050 h1         1 IQP       0.051700
     33 HN4          0.1080    -0.2870    -5.2860 hn         1 IQP       0.420000
     34 H5'1         2.0640     0.9820    -4.5130 h1         1 IQP       0.045700
     35 H5'2         0.5350     1.5000    -3.7850 h1         1 IQP       0.045700
     36 H6'1         2.6240    -0.3630    -2.5150 h1         1 IQP       0.079700
     37 H6'2         2.3500     1.3050    -2.0540 h1         1 IQP       0.079700
@<TRIPOS>BOND
     1     1     2 ar  
     2     1    10 ar  
     3     1    11 1   
     4     2     3 ar  
     5     2    21 1   
     6     3     4 ar  
     7     3    22 1   
     8     4     5 ar  
     9     4    23 1   
    10     5     6 ar  
    11     5    10 ar  
    12     6     7 ar  
    13     6    24 1   
    14     7     8 ar  
    15     8     9 ar  
    16     8    25 1   
    17     9    10 ar  
    18     9    26 1   
    19    11    12 2   
    20    11    13 2   
    21    11    14 1   
    22    14    15 1   
    23    14    20 1   
    24    15    16 1   
    25    15    17 1   
    26    15    27 1   
    27    16    28 1   
    28    16    29 1   
    29    16    30 1   
    30    17    18 1   
    31    17    31 1   
    32    17    32 1   
    33    18    19 1   
    34    18    33 1   
    35    19    20 1   
    36    19    34 1   
    37    19    35 1   
    38    20    36 1   
    39    20    37 1   
@<TRIPOS>SUBSTRUCTURE
     1 IQP         1 TEMP              0 ****  ****    0 ROOT
