@<TRIPOS>MOLECULE
IQP
   37    39     1     0     0
SMALL
abcg2


@<TRIPOS>ATOM
      1 C1          -0.8050     0.3830     0.8090 ca         1 IQP      -0.255500
      2 C2          -2.1360     0.2830     1.1180 ca         1 IQP       0.015000
      3 C3          -2.5530    -0.1740     2.3820 ca         1 IQP      -0.144000
      4 C4          -1.6220    -0.5230     3.3180 ca         1 IQP      -0.026000
      5 C5          -0.2450    -0.4160     3.0260 ca         1 IQP      -0.125000
      6 C6           0.7280    -0.7690     3.9900 ca         1 IQP       0.368900
      7 N7           2.0140    -0.6920     3.7930 nb         1 IQP      -0.663000
      8 C8           2.4300    -0.2410     2.5900 ca         1 IQP       0.340900
      9 C9           1.5940     0.1310     1.5750 ca         1 IQP      -0.151000
     10 C10          0.1960     0.0490     1.7630 ca         1 IQP       0.077000
     11 S           -0.3800     1.0360    -0.7870 sy         1 IQP       1.149600
     12 O1           0.4580     2.2080    -0.5660 o          1 IQP      -0.549000
     13 O2          -1.6210     1.2290    -1.5280 o          1 IQP      -0.549000
     14 N1           0.5810    -0.1330    -1.4530 n3         1 IQP      -0.749500
     15 C7          -0.0190    -1.3250    -2.0970 c6         1 IQP       0.218500
     16 CM2         -1.1820    -1.9550    -1.3520 c3         1 IQP      -0.115100
     17 C11         -0.3480    -1.0330    -3.5580 c6         1 IQP       0.124800
     18 N4           0.8430    -0.5790    -4.2550 n7         1 IQP      -0.863400
     19 C12          1.4050     0.6150    -3.6530 c6         1 IQP       0.125800
     20 C13          1.7580     0.3230    -2.2070 c6         1 IQP       0.193800
     21 H2          -2.8860     0.5390     0.3830 ha         1 IQP       0.143000
     22 H3          -3.6090    -0.2480     2.5970 ha         1 IQP       0.124000
     23 H4          -1.9270    -0.8820     4.2930 ha         1 IQP       0.120000
     24 H6           0.3920    -1.1290     4.9590 h4         1 IQP       0.019100
     25 H8           3.5030    -0.1810     2.4510 h4         1 IQP       0.022100
     26 H9           2.0300     0.4830     0.6540 ha         1 IQP       0.136000
     27 H1           0.7980    -2.0530    -2.0850 h1         1 IQP       0.075700
     28 HM21        -1.4190    -2.9010    -1.8380 hc         1 IQP       0.053700
     29 HM22        -0.9250    -2.1740    -0.3170 hc         1 IQP       0.053700
     30 HM23        -2.0860    -1.3470    -1.3700 hc         1 IQP       0.053700
     31 H3'1        -0.6940    -1.9580    -4.0250 h1         1 IQP       0.051700
     32 H3'2        -1.1790    -0.3150    -3.6040 h1         1 IQP       0.051700
     33 HN4          0.6180    -0.4000    -5.2240 hn         1 IQP       0.420000
     34 H5'1         2.3120     0.8970    -4.1930 h1         1 IQP       0.045700
     35 H5'2         0.7260     1.4830    -3.6860 h1         1 IQP       0.045700
     36 H6'1         2.4860    -0.4900    -2.1560 h1         1 IQP       0.079700
     37 H6'2         2.2070     1.1900    -1.7290 h1         1 IQP       0.079700
@<TRIPOS>BOND
     1     1     2 ar  
     2     1    10 ar  
     3     1    11 1   
     4     2     3 ar  
     5     2    21 1   
     6     3     4 ar  
     7     3    22 1   
     8     4     5 ar  
     9     4    23 1   
    10     5     6 ar  
    11     5    10 ar  
    12     6     7 ar  
    13     6    24 1   
    14     7     8 ar  
    15     8     9 ar  
    16     8    25 1   
    17     9    10 ar  
    18     9    26 1   
    19    11    12 2   
    20    11    13 2   
    21    11    14 1   
    22    14    15 1   
    23    14    20 1   
    24    15    16 1   
    25    15    17 1   
    26    15    27 1   
    27    16    28 1   
    28    16    29 1   
    29    16    30 1   
    30    17    18 1   
    31    17    31 1   
    32    17    32 1   
    33    18    19 1   
    34    18    33 1   
    35    19    20 1   
    36    19    34 1   
    37    19    35 1   
    38    20    36 1   
    39    20    37 1   
@<TRIPOS>SUBSTRUCTURE
     1 IQP         1 TEMP              0 ****  ****    0 ROOT
