@<TRIPOS>MOLECULE
IQQ
   25    26     1     0     0
SMALL
No Charge or Current Charge


@<TRIPOS>ATOM
      1 C            3.6620    -0.7400     0.5800 c          1 IQQ       0.713600
      2 O            3.4410    -1.9090     0.8620 o          1 IQQ      -0.719500
      3 C1           2.4900     0.1550     0.2110 ca         1 IQQ      -0.141600
      4 C10          0.3060     1.8210    -0.4670 ca         1 IQQ      -0.118000
      5 C11          1.6110     2.3340    -0.4700 ca         1 IQQ      -0.152000
      6 C12          2.6970     1.5100    -0.1340 ca         1 IQQ      -0.074000
      7 C2           1.1670    -0.3480     0.2080 ca         1 IQQ      -0.065000
      8 C3           0.0560     0.4680    -0.1290 cp         1 IQQ      -0.096000
      9 C4          -1.3380    -0.0820    -0.1270 cp         1 IQQ       0.042000
     10 C5          -2.4410     0.7160     0.2700 ca         1 IQQ      -0.147000
     11 C6          -3.7450     0.2010     0.2730 ca         1 IQQ       0.124100
     12 C7          -3.9820    -1.1230    -0.1210 ca         1 IQQ      -0.226000
     13 C8          -2.9090    -1.9350    -0.5200 ca         1 IQQ      -0.079000
     14 C9          -1.6020    -1.4190    -0.5220 ca         1 IQQ      -0.136000
     15 O1          -4.7850     0.9880     0.6630 oh         1 IQQ      -0.544100
     16 O2           4.7870    -0.2600     0.5810 o          1 IQQ      -0.719500
     17 H6          -0.5170     2.4750    -0.7440 ha         1 IQQ       0.088000
     18 H7           1.7830     3.3740    -0.7360 ha         1 IQQ       0.087000
     19 H8           3.7000     1.9300    -0.1430 ha         1 IQQ       0.128000
     20 H            0.9930    -1.3850     0.4860 ha         1 IQQ       0.130000
     21 H1          -2.2790     1.7410     0.5920 ha         1 IQQ       0.127000
     22 H3          -4.9910    -1.5280    -0.1220 ha         1 IQQ       0.097000
     23 H4          -3.0880    -2.9620    -0.8310 ha         1 IQQ       0.101000
     24 H5          -0.7860    -2.0580    -0.8480 ha         1 IQQ       0.130000
     25 H2          -5.6090     0.4600     0.6010 ho         1 IQQ       0.452000
@<TRIPOS>BOND
     1     1     2 1   
     2     1     3 1   
     3     1    16 1   
     4     3     6 ar  
     5     3     7 ar  
     6     4     5 ar  
     7     4     8 ar  
     8     4    17 1   
     9     5     6 ar  
    10     5    18 1   
    11     6    19 1   
    12     7     8 ar  
    13     7    20 1   
    14     8     9 1   
    15     9    10 ar  
    16     9    14 ar  
    17    10    11 ar  
    18    10    21 1   
    19    11    12 ar  
    20    11    15 1   
    21    12    13 ar  
    22    12    22 1   
    23    13    14 ar  
    24    13    23 1   
    25    14    24 1   
    26    15    25 1   
@<TRIPOS>SUBSTRUCTURE
     1 IQQ         1 TEMP              0 ****  ****    0 ROOT
