@<TRIPOS>MOLECULE
IQQ
   25    26     1     0     0
SMALL
abcg2


@<TRIPOS>ATOM
      1 C            3.6000    -0.7250     0.6410 c          1 IQQ       0.713600
      2 O            3.3200    -1.8830     1.0060 o          1 IQQ      -0.719500
      3 C1           2.4310     0.1640     0.2280 ca         1 IQQ      -0.141600
      4 C10          0.2800     1.7860    -0.5050 ca         1 IQQ      -0.118000
      5 C11          1.5710     2.2920    -0.5130 ca         1 IQQ      -0.152000
      6 C12          2.6420     1.4870    -0.1510 ca         1 IQQ      -0.074000
      7 C2           1.1320    -0.3320     0.2290 ca         1 IQQ      -0.065000
      8 C3           0.0440     0.4610    -0.1350 cp         1 IQQ      -0.096000
      9 C4          -1.3270    -0.0910    -0.1340 cp         1 IQQ       0.042000
     10 C5          -2.3970     0.6840     0.3060 ca         1 IQQ      -0.147000
     11 C6          -3.6930     0.1760     0.3030 ca         1 IQQ       0.124100
     12 C7          -3.9290    -1.1210    -0.1450 ca         1 IQQ      -0.226000
     13 C8          -2.8620    -1.8930    -0.5820 ca         1 IQQ      -0.079000
     14 C9          -1.5700    -1.3930    -0.5790 ca         1 IQQ      -0.136000
     15 O1          -4.6780     0.9820     0.7490 oh         1 IQQ      -0.544100
     16 O2           4.7350    -0.2170     0.5750 o          1 IQQ      -0.719500
     17 H6          -0.5450     2.4200    -0.8090 ha         1 IQQ       0.088000
     18 H7           1.7430     3.3190    -0.8110 ha         1 IQQ       0.087000
     19 H8           3.6470     1.8840    -0.1640 ha         1 IQQ       0.128000
     20 H            0.9670    -1.3570     0.5370 ha         1 IQQ       0.130000
     21 H1          -2.2280     1.6880     0.6780 ha         1 IQQ       0.127000
     22 H3          -4.9350    -1.5240    -0.1560 ha         1 IQQ       0.097000
     23 H4          -3.0490    -2.8980    -0.9370 ha         1 IQQ       0.101000
     24 H5          -0.7550    -2.0050    -0.9440 ha         1 IQQ       0.130000
     25 H2          -5.5240     0.5220     0.7240 ho         1 IQQ       0.452000
@<TRIPOS>BOND
     1     1     2 1   
     2     1     3 1   
     3     1    16 1   
     4     3     6 ar  
     5     3     7 ar  
     6     4     5 ar  
     7     4     8 ar  
     8     4    17 1   
     9     5     6 ar  
    10     5    18 1   
    11     6    19 1   
    12     7     8 ar  
    13     7    20 1   
    14     8     9 1   
    15     9    10 ar  
    16     9    14 ar  
    17    10    11 ar  
    18    10    21 1   
    19    11    12 ar  
    20    11    15 1   
    21    12    13 ar  
    22    12    22 1   
    23    13    14 ar  
    24    13    23 1   
    25    14    24 1   
    26    15    25 1   
@<TRIPOS>SUBSTRUCTURE
     1 IQQ         1 TEMP              0 ****  ****    0 ROOT
