@<TRIPOS>MOLECULE
IQR
   38    40     1     0     0
SMALL
abcg2


@<TRIPOS>ATOM
      1 N1           4.5610     4.8670    30.2120 nb         1 IQR      -0.250000
      2 C2           2.1530    12.2570    24.6810 c3         1 IQR      -0.097600
      3 N3           4.8260     6.0800    28.1840 nb         1 IQR      -0.260000
      4 C5           5.1380     8.4590    24.4360 ca         1 IQR      -0.009000
      5 C6           6.1720     8.4380    23.4740 ca         1 IQR      -0.069000
      6 O            1.7420    11.2270    22.5210 oh         1 IQR      -0.651000
      7 C1           1.9240    10.9610    23.8990 c3         1 IQR       0.277100
      8 C            0.6520    10.2670    24.3810 c3         1 IQR      -0.097600
      9 C3           3.0760    10.0610    24.0910 c1         1 IQR      -0.174100
     10 C16          5.1930     7.6380    25.5560 ca         1 IQR      -0.018000
     11 C15          6.2860     6.7860    25.7240 ca         1 IQR      -0.062800
     12 C8           7.3000     6.7850    24.7420 ca         1 IQR      -0.056200
     13 C7           7.2580     7.6040    23.6170 ca         1 IQR      -0.131000
     14 C10          6.6780     5.8240    26.7220 cc         1 IQR      -0.226000
     15 C9           7.8800     5.3050    26.2970 cd         1 IQR      -0.123100
     16 N            8.2440     5.8750    25.1270 na         1 IQR      -0.210700
     17 C11          5.9790     5.4630    27.9410 ca         1 IQR       0.273800
     18 C14          4.1690     5.7620    29.3020 ca         1 IQR       0.378900
     19 N2           3.0210     6.4310    29.5480 nv         1 IQR      -1.057900
     20 C13          5.7120     4.2580    29.9550 ca         1 IQR       0.150900
     21 C12          6.4770     4.5090    28.8370 ca         1 IQR      -0.289000
     22 H1           2.2820    12.0550    25.7440 hc         1 IQR       0.046700
     23 H2           3.0460    12.7750    24.3270 hc         1 IQR       0.046700
     24 H3           1.2960    12.9200    24.5580 hc         1 IQR       0.046700
     25 H4           6.1060     9.0890    22.6130 ha         1 IQR       0.119000
     26 H5           2.5060    11.7190    22.2000 ho         1 IQR       0.446000
     27 H6           0.7350    10.0160    25.4380 hc         1 IQR       0.046700
     28 H7          -0.2050    10.9290    24.2530 hc         1 IQR       0.046700
     29 H8           0.4690     9.3480    23.8250 hc         1 IQR       0.046700
     30 H9           4.3980     7.6600    26.2850 ha         1 IQR       0.143000
     31 H10          8.0510     7.5870    22.8800 ha         1 IQR       0.116000
     32 H11          8.5100     4.5580    26.7530 h4         1 IQR       0.216000
     33 H12          9.0870     5.6560    24.6200 hn         1 IQR       0.354000
     34 H13          2.5920     6.9370    28.7920 hn         1 IQR       0.489500
     35 H14          2.4030     6.0690    30.2530 hn         1 IQR       0.489500
     36 H15          6.0410     3.5260    30.6860 h4         1 IQR       0.017100
     37 H16          7.4090     3.9860    28.6760 ha         1 IQR       0.126000
     38 C4           4.0220     9.3300    24.2500 cg         1 IQR      -0.091000
@<TRIPOS>BOND
     1     1    18 ar  
     2     1    20 ar  
     3     2     7 1   
     4     2    22 1   
     5     2    23 1   
     6     2    24 1   
     7     3    17 ar  
     8     3    18 ar  
     9     4     5 ar  
    10     4    10 ar  
    11     4    38 1   
    12     5    13 ar  
    13     5    25 1   
    14     6     7 1   
    15     6    26 1   
    16     7     8 1   
    17     7     9 1   
    18     8    27 1   
    19     8    28 1   
    20     8    29 1   
    21     9    38 3   
    22    10    11 ar  
    23    10    30 1   
    24    11    12 ar  
    25    11    14 1   
    26    12    13 ar  
    27    12    16 1   
    28    13    31 1   
    29    14    15 2   
    30    14    17 1   
    31    15    16 1   
    32    15    32 1   
    33    16    33 1   
    34    17    21 ar  
    35    18    19 1   
    36    19    34 1   
    37    19    35 1   
    38    20    21 ar  
    39    20    36 1   
    40    21    37 1   
@<TRIPOS>SUBSTRUCTURE
     1 IQR         1 TEMP              0 ****  ****    0 ROOT
