@<TRIPOS>MOLECULE
IQR
   38    40     1     0     0
SMALL
No Charge or Current Charge


@<TRIPOS>ATOM
      1 N1           4.4190     4.3570    29.9850 nb         1 IQR      -0.250000
      2 C2           2.1660    12.3010    23.5470 c3         1 IQR      -0.097600
      3 N3           4.8820     6.0490    28.3390 nb         1 IQR      -0.260000
      4 C5           5.1450     8.5940    24.5430 ca         1 IQR      -0.009000
      5 C6           6.3070     8.8130    23.7650 ca         1 IQR      -0.069000
      6 O            1.0460    10.3170    22.7780 oh         1 IQR      -0.651000
      7 C1           1.7640    10.8490    23.8850 c3         1 IQR       0.277100
      8 C            0.8440    10.7940    25.1240 c3         1 IQR      -0.097600
      9 C3           2.9590    10.0220    24.0960 c1         1 IQR      -0.174100
     10 C16          5.1470     7.6140    25.5600 ca         1 IQR      -0.018000
     11 C15          6.3270     6.8830    25.7700 ca         1 IQR      -0.062800
     12 C8           7.4480     7.0890    25.0120 ca         1 IQR      -0.056200
     13 C7           7.4740     8.0540    23.9960 ca         1 IQR      -0.131000
     14 C10          6.6480     5.8280    26.6940 cc         1 IQR      -0.226000
     15 C9           7.9740     5.4680    26.4700 cd         1 IQR      -0.123100
     16 N            8.4760     6.2410    25.3950 na         1 IQR      -0.210700
     17 C11          5.8850     5.3010    27.8330 ca         1 IQR       0.273800
     18 C14          4.2130     5.5360    29.3800 ca         1 IQR       0.378900
     19 N2           3.2080     6.2960    29.8800 nv         1 IQR      -1.057900
     20 C13          5.4160     3.6050    29.4840 ca         1 IQR       0.150900
     21 C12          6.1860     4.0430    28.3950 ca         1 IQR      -0.289000
     22 H1           2.7220    12.7540    24.3770 hc         1 IQR       0.046700
     23 H2           2.7990    12.3390    22.6530 hc         1 IQR       0.046700
     24 H3           1.2780    12.9170    23.3600 hc         1 IQR       0.046700
     25 H4           6.3040     9.5680    22.9810 ha         1 IQR       0.119000
     26 H5           1.7260    10.0520    22.1220 ho         1 IQR       0.446000
     27 H6           1.3560    11.1930    26.0090 hc         1 IQR       0.046700
     28 H7          -0.0630    11.3900    24.9610 hc         1 IQR       0.046700
     29 H8           0.5380     9.7640    25.3420 hc         1 IQR       0.046700
     30 H9           4.2560     7.4320    26.1550 ha         1 IQR       0.143000
     31 H10          8.3690     8.2150    23.3980 ha         1 IQR       0.116000
     32 H11          8.6000     4.7520    26.9970 h4         1 IQR       0.216000
     33 H12          9.4130     6.2040    25.0030 hn         1 IQR       0.354000
     34 H13          2.8800     7.0900    29.3350 hn         1 IQR       0.489500
     35 H14          2.5420     5.8700    30.5210 hn         1 IQR       0.489500
     36 H15          5.5970     2.6420    29.9590 h4         1 IQR       0.017100
     37 H16          6.9780     3.4170    27.9980 ha         1 IQR       0.126000
     38 C4           3.9610     9.3650    24.2960 cg         1 IQR      -0.091000
@<TRIPOS>BOND
     1     1    18 ar  
     2     1    20 ar  
     3     2     7 1   
     4     2    22 1   
     5     2    23 1   
     6     2    24 1   
     7     3    17 ar  
     8     3    18 ar  
     9     4     5 ar  
    10     4    10 ar  
    11     4    38 1   
    12     5    13 ar  
    13     5    25 1   
    14     6     7 1   
    15     6    26 1   
    16     7     8 1   
    17     7     9 1   
    18     8    27 1   
    19     8    28 1   
    20     8    29 1   
    21     9    38 3   
    22    10    11 ar  
    23    10    30 1   
    24    11    12 ar  
    25    11    14 1   
    26    12    13 ar  
    27    12    16 1   
    28    13    31 1   
    29    14    15 2   
    30    14    17 1   
    31    15    16 1   
    32    15    32 1   
    33    16    33 1   
    34    17    21 ar  
    35    18    19 1   
    36    19    34 1   
    37    19    35 1   
    38    20    21 ar  
    39    20    36 1   
    40    21    37 1   
@<TRIPOS>SUBSTRUCTURE
     1 IQR         1 TEMP              0 ****  ****    0 ROOT
