@<TRIPOS>MOLECULE
IQS
   33    34     1     0     0
SMALL
No Charge or Current Charge


@<TRIPOS>ATOM
      1 C1          -1.0270     0.1560    -0.7510 ca         1 IQS      -0.304500
      2 C2          -1.6540     1.4100    -0.9350 ca         1 IQS       0.028000
      3 C3          -1.0770     2.3920    -1.7530 ca         1 IQS      -0.143000
      4 C4           0.1360     2.1420    -2.4050 ca         1 IQS      -0.023000
      5 C5           0.7810     0.9070    -2.2290 ca         1 IQS      -0.123000
      6 C6           2.0070     0.6660    -2.8790 ca         1 IQS       0.375900
      7 N7           2.7010    -0.4850    -2.7530 nb         1 IQS      -0.664000
      8 C8           2.1790    -1.4390    -1.9550 ca         1 IQS       0.352900
      9 C9           0.9640    -1.2890    -1.2690 ca         1 IQS      -0.180000
     10 C10          0.2190    -0.0950    -1.4030 ca         1 IQS       0.068000
     11 S           -1.9060    -1.0420     0.2950 sy         1 IQS       1.156600
     12 O1          -1.6870    -2.3950    -0.2160 o          1 IQS      -0.532500
     13 O2          -3.2490    -0.5530     0.6170 o          1 IQS      -0.532500
     14 N1          -1.0610    -1.0070     1.7360 n7         1 IQS      -0.874300
     15 C7           0.0410    -0.0390     1.9320 c3         1 IQS       0.196800
     16 C11          0.6180    -0.1410     3.3700 c3         1 IQS       0.151800
     17 N4           1.7260     0.8210     3.5930 n7         1 IQS      -0.861400
     18 C12          2.3650     0.7430     4.9210 c3         1 IQS       0.144100
     19 H2          -2.6020     1.6370    -0.4490 ha         1 IQS       0.145000
     20 H3          -1.5770     3.3490    -1.8850 ha         1 IQS       0.126000
     21 H4           0.5740     2.9090    -3.0400 ha         1 IQS       0.122000
     22 H6           2.4540     1.4240    -3.5220 h4         1 IQS       0.021100
     23 H8           2.7590    -2.3560    -1.8560 h4         1 IQS       0.025100
     24 H9           0.6510    -2.1090    -0.6370 ha         1 IQS       0.135000
     25 HN1         -0.7010    -1.9600     1.7670 hn         1 IQS       0.484000
     26 H2'1        -0.3200     0.9880     1.7780 h1         1 IQS       0.059200
     27 H2'2         0.8590    -0.2170     1.2230 h1         1 IQS       0.059200
     28 H3'1         0.9740    -1.1680     3.5300 h1         1 IQS       0.041200
     29 H3'2        -0.1940     0.0420     4.0880 h1         1 IQS       0.041200
     30 HN4          1.3560     1.7740     3.4730 hn         1 IQS       0.408000
     31 H5'1         3.1780     1.4760     5.0030 h1         1 IQS       0.032367
     32 H5'2         1.6380     0.9500     5.7190 h1         1 IQS       0.032367
     33 H5'3         2.7890    -0.2550     5.0940 h1         1 IQS       0.032367
@<TRIPOS>BOND
     1     1     2 ar  
     2     1    10 ar  
     3     1    11 1   
     4     2     3 ar  
     5     2    19 1   
     6     3     4 ar  
     7     3    20 1   
     8     4     5 ar  
     9     4    21 1   
    10     5     6 ar  
    11     5    10 ar  
    12     6     7 ar  
    13     6    22 1   
    14     7     8 ar  
    15     8     9 ar  
    16     8    23 1   
    17     9    10 ar  
    18     9    24 1   
    19    11    12 2   
    20    11    13 2   
    21    11    14 1   
    22    14    15 1   
    23    14    25 1   
    24    15    16 1   
    25    15    26 1   
    26    15    27 1   
    27    16    17 1   
    28    16    28 1   
    29    16    29 1   
    30    17    18 1   
    31    17    30 1   
    32    18    31 1   
    33    18    32 1   
    34    18    33 1   
@<TRIPOS>SUBSTRUCTURE
     1 IQS         1 TEMP              0 ****  ****    0 ROOT
