@<TRIPOS>MOLECULE
IQS
   33    34     1     0     0
SMALL
bcc


@<TRIPOS>ATOM
      1 C1          -0.9100     0.2300    -0.8370 ca         1 IQS      -0.304500
      2 C2          -1.4310     1.4860    -1.0090 ca         1 IQS       0.010000
      3 C3          -0.8830     2.3730    -1.9540 ca         1 IQS      -0.161000
      4 C4           0.1910     1.9880    -2.7040 ca         1 IQS      -0.041000
      5 C5           0.7480     0.7020    -2.5410 ca         1 IQS      -0.188300
      6 C6           1.8650     0.2950    -3.3070 ca         1 IQS       0.441200
      7 N7           2.4330    -0.8750    -3.2070 nb         1 IQS      -0.664000
      8 C8           1.9110    -1.7440    -2.3170 ca         1 IQS       0.418200
      9 C9           0.8330    -1.4750    -1.5200 ca         1 IQS      -0.263300
     10 C10          0.2050    -0.2120    -1.6050 ca         1 IQS       0.068000
     11 S           -1.6280    -0.7990     0.4250 sy         1 IQS       1.298200
     12 O1          -1.8430    -2.1330    -0.1100 o          1 IQS      -0.603300
     13 O2          -2.7500    -0.0710     0.9910 o          1 IQS      -0.603300
     14 N1          -0.4970    -0.9400     1.6070 n7         1 IQS      -0.819100
     15 C7           0.0130     0.2710     2.2440 c3         1 IQS       0.196800
     16 C11          0.7700    -0.1030     3.5090 c3         1 IQS       0.151800
     17 N4           1.2830     1.0900     4.1460 n7         1 IQS      -0.806200
     18 C12          2.1010     0.7920     5.3050 c3         1 IQS       0.144100
     19 H2          -2.2740     1.8150    -0.4170 ha         1 IQS       0.163000
     20 H3          -1.3150     3.3570    -2.0700 ha         1 IQS       0.144000
     21 H4           0.6300     2.6630    -3.4280 ha         1 IQS       0.140000
     22 H6           2.2830     0.9920    -4.0270 h4         1 IQS       0.021100
     23 H8           2.3940    -2.7110    -2.2570 h4         1 IQS       0.025100
     24 H9           0.4770    -2.2520    -0.8620 ha         1 IQS       0.153000
     25 HN1          0.2170    -1.6270     1.3870 hn         1 IQS       0.428800
     26 H2'1        -0.8340     0.9080     2.5010 h1         1 IQS       0.059200
     27 H2'2         0.6690     0.8380     1.5760 h1         1 IQS       0.059200
     28 H3'1         1.6180    -0.7430     3.2440 h1         1 IQS       0.041200
     29 H3'2         0.1170    -0.7020     4.1610 h1         1 IQS       0.041200
     30 HN4          0.5030     1.6650     4.4380 hn         1 IQS       0.352800
     31 H5'1         2.4130     1.7200     5.7840 h1         1 IQS       0.032367
     32 H5'2         1.6010     0.1730     6.0620 h1         1 IQS       0.032367
     33 H5'3         3.0030     0.2620     4.9940 h1         1 IQS       0.032367
@<TRIPOS>BOND
     1     1     2 ar  
     2     1    10 ar  
     3     1    11 1   
     4     2     3 ar  
     5     2    19 1   
     6     3     4 ar  
     7     3    20 1   
     8     4     5 ar  
     9     4    21 1   
    10     5     6 ar  
    11     5    10 ar  
    12     6     7 ar  
    13     6    22 1   
    14     7     8 ar  
    15     8     9 ar  
    16     8    23 1   
    17     9    10 ar  
    18     9    24 1   
    19    11    12 2   
    20    11    13 2   
    21    11    14 1   
    22    14    15 1   
    23    14    25 1   
    24    15    16 1   
    25    15    26 1   
    26    15    27 1   
    27    16    17 1   
    28    16    28 1   
    29    16    29 1   
    30    17    18 1   
    31    17    30 1   
    32    18    31 1   
    33    18    32 1   
    34    18    33 1   
@<TRIPOS>SUBSTRUCTURE
     1 IQS         1 TEMP              0 ****  ****    0 ROOT
