@<TRIPOS>MOLECULE
IQT
   70    71     1     0     0
SMALL
No Charge or Current Charge


@<TRIPOS>ATOM
      1 C12        122.1950   160.6710   150.3940 ce         1 IQT      -0.164000
      2 C13        121.3890   161.7600   149.8290 ce         1 IQT      -0.189000
      3 C14        120.0460   161.6960   149.7060 c2         1 IQT      -0.199200
      4 C15        119.1640   162.7810   149.1210 c3         1 IQT      -0.039200
      5 C16        119.4010   162.9490   147.6220 cx         1 IQT       0.094300
      6 C17        118.9160   161.9440   146.6100 cx         1 IQT       0.088300
      7 C18        118.1570   160.6820   147.0160 c3         1 IQT      -0.067400
      8 C19        117.5450   159.9390   145.8070 c3         1 IQT      -0.072400
      9 C20        116.6820   158.7080   146.1820 c3         1 IQT      -0.073400
     10 C1         127.2410   165.9360   153.3790 c          1 IQT       0.650300
     11 O2         127.9880   167.0750   153.2540 os         1 IQT      -0.408100
     12 C2         128.5950   167.1270   151.9280 c5         1 IQT       0.208200
     13 C3         128.0710   168.3890   151.2110 c3         1 IQT      -0.091100
     14 C4         130.1390   167.1880   152.0780 c3         1 IQT      -0.070400
     15 C5         130.7800   165.9980   152.8290 c3         1 IQT      -0.092100
     16 C6         128.1250   165.8580   151.2290 c2         1 IQT      -0.244200
     17 C7         127.3500   165.2020   152.0960 ce         1 IQT      -0.068600
     18 N1         126.6560   163.9690   151.9730 ns         1 IQT      -0.386100
     19 C9         125.7270   161.8440   151.1570 c3         1 IQT      -0.200400
     20 C10        124.4830   161.8470   150.2520 c3         1 IQT       0.227500
     21 O3         124.8980   161.7280   148.8930 oh         1 IQT      -0.657000
     22 C11        123.5370   160.7060   150.5700 c2         1 IQT      -0.209200
     23 O4         118.2350   163.2060   146.8020 op         1 IQT      -0.440000
     24 C21        117.4150   157.5770   146.9520 c3         1 IQT      -0.073400
     25 C22        118.6580   156.9760   146.2450 c3         1 IQT      -0.071400
     26 C23        118.4080   156.3760   144.8350 c3         1 IQT      -0.072400
     27 C24        117.3550   155.2420   144.7640 c3         1 IQT      -0.074400
     28 C25        117.7040   153.9950   145.6040 c3         1 IQT      -0.089100
     29 O5         127.1620   163.2620   149.8560 o          1 IQT      -0.596100
     30 H1         121.6500   159.7680   150.6810 ha         1 IQT       0.173000
     31 H2         121.9180   162.6520   149.4880 ha         1 IQT       0.174000
     32 H3         119.5030   160.8100   150.0390 ha         1 IQT       0.171000
     33 H5         119.3700   163.7340   149.6240 hc         1 IQT       0.061700
     34 H6         118.1080   162.5590   149.3190 hc         1 IQT       0.061700
     35 H7         120.2910   163.5260   147.3660 h1         1 IQT       0.084700
     36 H8         119.4890   161.8540   145.6860 h1         1 IQT       0.080700
     37 H9         117.3560   160.9300   147.7220 hc         1 IQT       0.048700
     38 H10        118.8470   160.0110   147.5400 hc         1 IQT       0.048700
     39 H11        118.3450   159.6340   145.1210 hc         1 IQT       0.045700
     40 H12        116.9140   160.6410   145.2480 hc         1 IQT       0.045700
     41 H13        115.8340   159.0470   146.7900 hc         1 IQT       0.039200
     42 H14        116.2460   158.2930   145.2650 hc         1 IQT       0.039200
     43 H15        128.3540   169.3010   151.7500 hc         1 IQT       0.053033
     44 H16        128.4760   168.4620   150.1940 hc         1 IQT       0.053033
     45 H17        126.9780   168.3720   151.1320 hc         1 IQT       0.053033
     46 H18        130.4200   168.1130   152.5970 hc         1 IQT       0.054700
     47 H19        130.5960   167.2490   151.0830 hc         1 IQT       0.054700
     48 H20        131.8680   166.1270   152.8860 hc         1 IQT       0.041033
     49 H21        130.3940   165.9270   153.8530 hc         1 IQT       0.041033
     50 H22        130.5770   165.0520   152.3140 hc         1 IQT       0.041033
     51 H23        128.3760   165.5430   150.2150 ha         1 IQT       0.235000
     52 H26        126.1350   163.7060   152.8030 hn         1 IQT       0.344500
     53 H27        125.4060   161.8040   152.2050 hc         1 IQT       0.076700
     54 H28        126.3290   160.9550   150.9360 hc         1 IQT       0.076700
     55 H29        123.9600   162.8010   150.4060 h1         1 IQT       0.046700
     56 H30        125.7030   162.2910   148.8040 ho         1 IQT       0.465000
     57 H31        124.0380   159.8320   150.9890 ha         1 IQT       0.182000
     58 H33        117.7220   157.9540   147.9350 hc         1 IQT       0.035700
     59 H34        116.6970   156.7740   147.1570 hc         1 IQT       0.035700
     60 H35        119.0860   156.2010   146.8920 hc         1 IQT       0.035700
     61 H36        119.4310   157.7490   146.1620 hc         1 IQT       0.035700
     62 H37        118.1060   157.1790   144.1520 hc         1 IQT       0.036200
     63 H38        119.3600   155.9950   144.4480 hc         1 IQT       0.036200
     64 H39        116.3740   155.6230   145.0700 hc         1 IQT       0.036200
     65 H40        117.2510   154.9340   143.7160 hc         1 IQT       0.036200
     66 H41        116.9610   153.2060   145.4380 hc         1 IQT       0.030367
     67 H42        118.6890   153.6020   145.3250 hc         1 IQT       0.030367
     68 H43        117.7120   154.2310   146.6740 hc         1 IQT       0.030367
     69 C8         126.5800   163.0850   150.9170 c          1 IQT       0.606100
     70 O1         126.6090   165.6050   154.3730 o          1 IQT      -0.501000
@<TRIPOS>BOND
     1     1     2 1   
     2     1    22 2   
     3     1    30 1   
     4     2     3 2   
     5     2    31 1   
     6     3     4 1   
     7     3    32 1   
     8     4     5 1   
     9     4    33 1   
    10     4    34 1   
    11     5     6 1   
    12     5    23 1   
    13     5    35 1   
    14     6     7 1   
    15     6    23 1   
    16     6    36 1   
    17     7     8 1   
    18     7    37 1   
    19     7    38 1   
    20     8     9 1   
    21     8    39 1   
    22     8    40 1   
    23     9    24 1   
    24     9    41 1   
    25     9    42 1   
    26    10    11 1   
    27    10    17 1   
    28    10    70 2   
    29    11    12 1   
    30    12    13 1   
    31    12    14 1   
    32    12    16 1   
    33    13    43 1   
    34    13    44 1   
    35    13    45 1   
    36    14    15 1   
    37    14    46 1   
    38    14    47 1   
    39    15    48 1   
    40    15    49 1   
    41    15    50 1   
    42    16    17 2   
    43    16    51 1   
    44    17    18 1   
    45    18    52 1   
    46    18    69 1   
    47    19    20 1   
    48    19    53 1   
    49    19    54 1   
    50    19    69 1   
    51    20    21 1   
    52    20    22 1   
    53    20    55 1   
    54    21    56 1   
    55    22    57 1   
    56    24    25 1   
    57    24    58 1   
    58    24    59 1   
    59    25    26 1   
    60    25    60 1   
    61    25    61 1   
    62    26    27 1   
    63    26    62 1   
    64    26    63 1   
    65    27    28 1   
    66    27    64 1   
    67    27    65 1   
    68    28    66 1   
    69    28    67 1   
    70    28    68 1   
    71    29    69 2   
@<TRIPOS>SUBSTRUCTURE
     1 IQT         1 TEMP              0 ****  ****    0 ROOT
