@<TRIPOS>MOLECULE
IQT
   70    71     1     0     0
SMALL
abcg2


@<TRIPOS>ATOM
      1 C12        123.9300   160.5750   149.3910 ce         1 IQT      -0.164000
      2 C13        122.8870   161.4430   148.8710 ce         1 IQT      -0.189000
      3 C14        121.6980   160.9840   148.4690 c2         1 IQT      -0.199200
      4 C15        120.6080   161.8350   147.9030 c3         1 IQT      -0.039200
      5 C16        120.4540   161.5780   146.4220 cx         1 IQT       0.094300
      6 C17        119.6140   160.5250   145.8520 cx         1 IQT       0.088300
      7 C18        118.7770   159.5630   146.6470 c3         1 IQT      -0.067400
      8 C19        117.4090   159.3370   146.0100 c3         1 IQT      -0.072400
      9 C20        116.5260   158.3630   146.7860 c3         1 IQT      -0.073400
     10 C1         127.6420   166.1330   154.2250 c          1 IQT       0.650300
     11 O2         128.2330   167.3180   154.3230 os         1 IQT      -0.408100
     12 C2         128.5180   167.8560   153.0130 c5         1 IQT       0.208200
     13 C3         127.7530   169.1620   152.8540 c3         1 IQT      -0.091100
     14 C4         130.0260   168.0810   152.8910 c3         1 IQT      -0.070400
     15 C5         130.8870   166.8430   153.0930 c3         1 IQT      -0.092100
     16 C6         128.0100   166.8010   152.0820 c2         1 IQT      -0.244200
     17 C7         127.4950   165.7980   152.7920 ce         1 IQT      -0.068600
     18 N1         126.8980   164.6000   152.4690 ns         1 IQT      -0.386100
     19 C9         126.0350   162.7750   151.1460 c3         1 IQT      -0.200400
     20 C10        125.7720   162.2950   149.7180 c3         1 IQT       0.227500
     21 O3         126.9650   162.1910   148.9690 oh         1 IQT      -0.657000
     22 C11        125.1670   160.9240   149.7570 c2         1 IQT      -0.209200
     23 O4         119.2070   161.8900   145.8220 op         1 IQT      -0.440000
     24 C21        117.0690   156.9380   146.8930 c3         1 IQT      -0.073400
     25 C22        117.3230   156.2460   145.5550 c3         1 IQT      -0.071400
     26 C23        116.1100   156.1680   144.6300 c3         1 IQT      -0.072400
     27 C24        114.8780   155.4960   145.2350 c3         1 IQT      -0.074400
     28 C25        115.1200   154.0630   145.6890 c3         1 IQT      -0.089100
     29 O5         126.9800   164.7900   150.2220 o          1 IQT      -0.596100
     30 H1         123.6590   159.5270   149.4830 ha         1 IQT       0.173000
     31 H2         123.0830   162.5090   148.8050 ha         1 IQT       0.174000
     32 H3         121.4960   159.9170   148.5270 ha         1 IQT       0.171000
     33 H5         120.8340   162.8930   148.0570 hc         1 IQT       0.061700
     34 H6         119.6670   161.6300   148.4190 hc         1 IQT       0.061700
     35 H7         121.3230   161.8860   145.8410 h1         1 IQT       0.084700
     36 H8         119.9110   160.1390   144.8760 h1         1 IQT       0.080700
     37 H9         118.6460   159.9040   147.6770 hc         1 IQT       0.048700
     38 H10        119.3310   158.6210   146.7010 hc         1 IQT       0.048700
     39 H11        117.5360   158.9910   144.9800 hc         1 IQT       0.045700
     40 H12        116.8900   160.2970   145.9410 hc         1 IQT       0.045700
     41 H13        116.3680   158.7550   147.7960 hc         1 IQT       0.039200
     42 H14        115.5370   158.3390   146.3200 hc         1 IQT       0.039200
     43 H15        128.0960   169.9040   153.5760 hc         1 IQT       0.053033
     44 H16        127.9190   169.5630   151.8540 hc         1 IQT       0.053033
     45 H17        126.6820   169.0110   152.9850 hc         1 IQT       0.053033
     46 H18        130.3150   168.8580   153.6040 hc         1 IQT       0.054700
     47 H19        130.2070   168.4980   151.8980 hc         1 IQT       0.054700
     48 H20        131.9400   167.1050   152.9870 hc         1 IQT       0.041033
     49 H21        130.7600   166.4130   154.0870 hc         1 IQT       0.041033
     50 H22        130.6670   166.0680   152.3590 hc         1 IQT       0.041033
     51 H23        128.0790   166.9060   151.0110 ha         1 IQT       0.235000
     52 H26        126.6110   164.0210   153.2470 hn         1 IQT       0.344500
     53 H27        125.0930   162.8040   151.7020 hc         1 IQT       0.076700
     54 H28        126.6760   162.0590   151.6720 hc         1 IQT       0.076700
     55 H29        125.0790   163.0000   149.2430 h1         1 IQT       0.046700
     56 H30        127.3220   163.0810   148.8790 ho         1 IQT       0.465000
     57 H31        125.8270   160.1470   150.1320 ha         1 IQT       0.182000
     58 H33        117.9980   156.9380   147.4700 hc         1 IQT       0.035700
     59 H34        116.3650   156.3430   147.4820 hc         1 IQT       0.035700
     60 H35        117.6980   155.2380   145.7530 hc         1 IQT       0.035700
     61 H36        118.1330   156.7550   145.0230 hc         1 IQT       0.035700
     62 H37        115.8370   157.1750   144.2980 hc         1 IQT       0.036200
     63 H38        116.3990   155.6250   143.7240 hc         1 IQT       0.036200
     64 H39        114.5080   156.0880   146.0780 hc         1 IQT       0.036200
     65 H40        114.0770   155.5070   144.4920 hc         1 IQT       0.036200
     66 H41        114.1950   153.5970   146.0310 hc         1 IQT       0.030367
     67 H42        115.5150   153.4510   144.8750 hc         1 IQT       0.030367
     68 H43        115.8320   154.0120   146.5140 hc         1 IQT       0.030367
     69 C8         126.6780   164.1410   151.2090 c          1 IQT       0.606100
     70 O1         127.3000   165.4760   155.1730 o          1 IQT      -0.501000
@<TRIPOS>BOND
     1     1     2 1   
     2     1    22 2   
     3     1    30 1   
     4     2     3 2   
     5     2    31 1   
     6     3     4 1   
     7     3    32 1   
     8     4     5 1   
     9     4    33 1   
    10     4    34 1   
    11     5     6 1   
    12     5    23 1   
    13     5    35 1   
    14     6     7 1   
    15     6    23 1   
    16     6    36 1   
    17     7     8 1   
    18     7    37 1   
    19     7    38 1   
    20     8     9 1   
    21     8    39 1   
    22     8    40 1   
    23     9    24 1   
    24     9    41 1   
    25     9    42 1   
    26    10    11 1   
    27    10    17 1   
    28    10    70 2   
    29    11    12 1   
    30    12    13 1   
    31    12    14 1   
    32    12    16 1   
    33    13    43 1   
    34    13    44 1   
    35    13    45 1   
    36    14    15 1   
    37    14    46 1   
    38    14    47 1   
    39    15    48 1   
    40    15    49 1   
    41    15    50 1   
    42    16    17 2   
    43    16    51 1   
    44    17    18 1   
    45    18    52 1   
    46    18    69 1   
    47    19    20 1   
    48    19    53 1   
    49    19    54 1   
    50    19    69 1   
    51    20    21 1   
    52    20    22 1   
    53    20    55 1   
    54    21    56 1   
    55    22    57 1   
    56    24    25 1   
    57    24    58 1   
    58    24    59 1   
    59    25    26 1   
    60    25    60 1   
    61    25    61 1   
    62    26    27 1   
    63    26    62 1   
    64    26    63 1   
    65    27    28 1   
    66    27    64 1   
    67    27    65 1   
    68    28    66 1   
    69    28    67 1   
    70    28    68 1   
    71    29    69 2   
@<TRIPOS>SUBSTRUCTURE
     1 IQT         1 TEMP              0 ****  ****    0 ROOT
