@<TRIPOS>MOLECULE
IQU
   30    31     1     0     0
SMALL
bcc


@<TRIPOS>ATOM
      1 C1          -0.3730    -0.9320     0.0040 ca         1 IQU      -0.305500
      2 C2          -0.5270    -1.8150     1.0410 ca         1 IQU       0.011000
      3 C3          -1.6230    -1.7160     1.9180 ca         1 IQU      -0.160000
      4 C4          -2.5400    -0.7200     1.7480 ca         1 IQU      -0.042000
      5 C5          -2.3980     0.2050     0.6920 ca         1 IQU      -0.189300
      6 C6          -3.3370     1.2480     0.5140 ca         1 IQU       0.440200
      7 N7          -3.2680     2.1400    -0.4350 nb         1 IQU      -0.664000
      8 C8          -2.2370     2.0450    -1.3000 ca         1 IQU       0.416200
      9 C9          -1.2670     1.0830    -1.2410 ca         1 IQU      -0.263300
     10 C10         -1.3130     0.1140    -0.2140 ca         1 IQU       0.068000
     11 S            1.0710    -1.1070    -1.0210 sy         1 IQU       1.299200
     12 O1           1.8010    -2.2650    -0.5370 o          1 IQU      -0.602300
     13 O2           0.6740    -1.0460    -2.4180 o          1 IQU      -0.602300
     14 N1           2.0060     0.2120    -0.7380 n7         1 IQU      -0.821100
     15 C7           2.4310     0.5000     0.6300 c3         1 IQU       0.199800
     16 C11          3.5660     1.5130     0.6060 c3         1 IQU       0.148800
     17 N4           3.9590     1.8250     1.9680 n8         1 IQU      -0.888800
     18 H2           0.1990    -2.6000     1.2000 ha         1 IQU       0.166000
     19 H3          -1.7220    -2.4290     2.7240 ha         1 IQU       0.145000
     20 H4          -3.3830    -0.6240     2.4210 ha         1 IQU       0.140000
     21 H6          -4.1690     1.3200     1.2080 h4         1 IQU       0.021100
     22 H8          -2.2050     2.7910    -2.0850 h4         1 IQU       0.024100
     23 H9          -0.5050     1.0820    -2.0050 ha         1 IQU       0.152000
     24 H1           1.7040     1.0280    -1.2600 hn         1 IQU       0.426800
     25 H2'1         2.7830    -0.4200     1.0940 h1         1 IQU       0.059700
     26 H2'2         1.6010     0.8840     1.2330 h1         1 IQU       0.059700
     27 H3'1         3.2530     2.3900     0.0210 h1         1 IQU       0.039200
     28 H3'2         4.4180     1.0750     0.0840 h1         1 IQU       0.039200
     29 H4'1         4.8000     2.3870     1.9550 hn         1 IQU       0.342800
     30 H4'2         3.2510     2.4010     2.4050 hn         1 IQU       0.342800
@<TRIPOS>BOND
     1     1     2 ar  
     2     1    10 ar  
     3     1    11 1   
     4     2     3 ar  
     5     2    18 1   
     6     3     4 ar  
     7     3    19 1   
     8     4     5 ar  
     9     4    20 1   
    10     5     6 ar  
    11     5    10 ar  
    12     6     7 ar  
    13     6    21 1   
    14     7     8 ar  
    15     8     9 ar  
    16     8    22 1   
    17     9    10 ar  
    18     9    23 1   
    19    11    12 2   
    20    11    13 2   
    21    11    14 1   
    22    14    15 1   
    23    14    24 1   
    24    15    16 1   
    25    15    25 1   
    26    15    26 1   
    27    16    17 1   
    28    16    27 1   
    29    16    28 1   
    30    17    29 1   
    31    17    30 1   
@<TRIPOS>SUBSTRUCTURE
     1 IQU         1 TEMP              0 ****  ****    0 ROOT
