@<TRIPOS>MOLECULE
IQU
   30    31     1     0     0
SMALL
No Charge or Current Charge


@<TRIPOS>ATOM
      1 C1          -0.2790    -1.0060    -0.0560 ca         1 IQU      -0.305500
      2 C2          -0.4490    -1.9630     0.9720 ca         1 IQU       0.029000
      3 C3          -1.4760    -1.8310     1.9170 ca         1 IQU      -0.142000
      4 C4          -2.3550    -0.7440     1.8550 ca         1 IQU      -0.024000
      5 C5          -2.1990     0.2230     0.8470 ca         1 IQU      -0.124000
      6 C6          -3.0810     1.3200     0.7970 ca         1 IQU       0.374900
      7 N7          -2.9930     2.3010    -0.1270 nb         1 IQU      -0.664000
      8 C8          -2.0000     2.2100    -1.0360 ca         1 IQU       0.350900
      9 C9          -1.0770     1.1530    -1.0640 ca         1 IQU      -0.180000
     10 C10         -1.1650     0.1110    -0.1120 ca         1 IQU       0.068000
     11 S            1.0600    -1.3230    -1.2420 sy         1 IQU       1.157600
     12 O1           1.6350    -2.6530    -1.0260 o          1 IQU      -0.531500
     13 O2           0.6520    -0.8730    -2.5730 o          1 IQU      -0.531500
     14 N1           2.2530    -0.2420    -0.7940 n7         1 IQU      -0.876300
     15 C7           2.1070     0.5580     0.4420 c3         1 IQU       0.199800
     16 C11          3.3790     1.4150     0.6960 c3         1 IQU       0.148800
     17 N4           3.2980     2.2490     1.9250 n8         1 IQU      -0.999200
     18 H2           0.2130    -2.8250     1.0470 ha         1 IQU       0.148000
     19 H3          -1.5930    -2.5790     2.6980 ha         1 IQU       0.127000
     20 H4          -3.1510    -0.6520     2.5910 ha         1 IQU       0.122000
     21 H6          -3.8850     1.4210     1.5250 h4         1 IQU       0.021100
     22 H8          -1.9380     3.0160    -1.7660 h4         1 IQU       0.024100
     23 H9          -0.3070     1.1910    -1.8220 ha         1 IQU       0.134000
     24 H1           2.2750     0.3690    -1.6090 hn         1 IQU       0.482000
     25 H2'1         1.9580    -0.0990     1.3100 h1         1 IQU       0.059700
     26 H2'2         1.2420     1.2330     0.3810 h1         1 IQU       0.059700
     27 H3'1         3.5500     2.0780    -0.1640 h1         1 IQU       0.039200
     28 H3'2         4.2460     0.7460     0.7880 h1         1 IQU       0.039200
     29 H4'1         4.1610     2.8010     2.0110 hn         1 IQU       0.398000
     30 H4'2         2.5700     2.9640     1.8020 hn         1 IQU       0.398000
@<TRIPOS>BOND
     1     1     2 ar  
     2     1    10 ar  
     3     1    11 1   
     4     2     3 ar  
     5     2    18 1   
     6     3     4 ar  
     7     3    19 1   
     8     4     5 ar  
     9     4    20 1   
    10     5     6 ar  
    11     5    10 ar  
    12     6     7 ar  
    13     6    21 1   
    14     7     8 ar  
    15     8     9 ar  
    16     8    22 1   
    17     9    10 ar  
    18     9    23 1   
    19    11    12 2   
    20    11    13 2   
    21    11    14 1   
    22    14    15 1   
    23    14    24 1   
    24    15    16 1   
    25    15    25 1   
    26    15    26 1   
    27    16    17 1   
    28    16    27 1   
    29    16    28 1   
    30    17    29 1   
    31    17    30 1   
@<TRIPOS>SUBSTRUCTURE
     1 IQU         1 TEMP              0 ****  ****    0 ROOT
