@<TRIPOS>MOLECULE
IQV
   39    42     1     0     0
SMALL
No Charge or Current Charge


@<TRIPOS>ATOM
      1 C02         91.8840    -7.3410    16.3690 cc         1 IQV       0.286900
      2 C04         90.6810    -9.0340    15.3100 cd         1 IQV       0.406300
      3 C05         91.7530    -9.1440    14.3820 cd         1 IQV      -0.120000
      4 N09         91.9120    -9.9390    13.3430 nc         1 IQV      -0.372300
      5 C10         89.4490    -9.8940    15.2350 c3         1 IQV      -0.142400
      6 C13         93.1690   -11.2020    10.9450 cf         1 IQV      -0.213800
      7 C17         93.7810   -13.2290     8.1440 cc         1 IQV       0.639500
      8 C19         95.9880   -10.7890     9.3170 c3         1 IQV       0.067900
      9 C20         93.3280   -14.2720     7.2760 cc         1 IQV      -0.246500
     10 C21         94.0000   -14.7700     6.1980 cd         1 IQV      -0.135000
     11 C24         92.1190   -14.9660     7.3750 cc         1 IQV       0.279900
     12 N01         90.7420    -8.1410    16.2960 nc         1 IQV      -0.649000
     13 C03         92.9700    -7.3980    15.4920 cd         1 IQV      -0.091300
     14 N06         92.8440    -8.3500    14.4850 na         1 IQV       0.314400
     15 N07         93.7760    -8.5810    13.5230 nd         1 IQV      -0.587100
     16 C08         93.1440    -9.5490    12.8750 cc         1 IQV       0.565600
     17 C12         93.7170   -10.1950    11.7000 ce         1 IQV      -0.230600
     18 C14         93.6920   -11.8880     9.7610 cd         1 IQV       0.463300
     19 N15         94.8850   -11.7270     9.0570 na         1 IQV      -0.042700
     20 N16         94.9340   -12.6030     8.0060 nd         1 IQV      -0.547800
     21 N18         92.9940   -12.8400     9.1820 nc         1 IQV      -0.686000
     22 N22         93.1450   -15.7600     5.6920 na         1 IQV      -0.004200
     23 N23         91.9640   -15.8800     6.4340 nd         1 IQV      -0.529800
     24 H1          91.8680    -6.6390    17.1920 h4         1 IQV       0.039100
     25 H17         88.7370    -9.6630    16.0350 hc         1 IQV       0.066033
     26 H26         88.9370    -9.7490    14.2770 hc         1 IQV       0.066033
     27 H28         89.7140   -10.9540    15.3180 hc         1 IQV       0.066033
     28 H18         95.1050    -7.1230    15.7230 hc         1 IQV       0.064367
     29 H30         94.3270    -5.9180    14.6820 hc         1 IQV       0.064367
     30 H31         94.1320    -5.8300    16.4380 hc         1 IQV       0.064367
     31 H33         92.1890   -11.5780    11.2410 ha         1 IQV       0.226000
     32 H34         96.7800   -10.9240     8.5700 h1         1 IQV       0.062033
     33 H35         95.6170    -9.7590     9.2600 h1         1 IQV       0.062033
     34 H36         96.4050   -10.9780    10.3140 h1         1 IQV       0.062033
     35 H37         94.9640   -14.5210     5.7660 h4         1 IQV       0.163000
     36 H39         91.3360   -14.8340     8.1120 h4         1 IQV       0.051100
     37 H53         94.6920    -9.7910    11.4400 ha         1 IQV       0.190000
     38 H38         93.3240   -16.3480     4.8770 hn         1 IQV       0.372000
     39 C11         94.1980    -6.5200    15.5890 c3         1 IQV      -0.041800
@<TRIPOS>BOND
     1     1    12 1   
     2     1    13 2   
     3     1    24 1   
     4     2     3 1   
     5     2     5 1   
     6     2    12 2   
     7     3     4 2   
     8     3    14 1   
     9     4    16 1   
    10     5    25 1   
    11     5    26 1   
    12     5    27 1   
    13     6    17 2   
    14     6    18 1   
    15     6    31 1   
    16     7     9 1   
    17     7    20 2   
    18     7    21 1   
    19     8    19 1   
    20     8    32 1   
    21     8    33 1   
    22     8    34 1   
    23     9    10 2   
    24     9    11 1   
    25    10    22 1   
    26    10    35 1   
    27    11    23 2   
    28    11    36 1   
    29    13    14 1   
    30    13    39 1   
    31    14    15 1   
    32    15    16 2   
    33    16    17 1   
    34    17    37 1   
    35    18    19 1   
    36    18    21 2   
    37    19    20 1   
    38    22    23 1   
    39    22    38 1   
    40    28    39 1   
    41    29    39 1   
    42    30    39 1   
@<TRIPOS>SUBSTRUCTURE
     1 IQV         1 TEMP              0 ****  ****    0 ROOT
