@<TRIPOS>MOLECULE
IQV
   39    42     1     0     0
SMALL
abcg2


@<TRIPOS>ATOM
      1 C02         91.9040    -7.2760    16.2860 cc         1 IQV       0.286900
      2 C04         90.8070    -9.1170    15.4390 cd         1 IQV       0.406300
      3 C05         91.7880    -9.1940    14.4180 cd         1 IQV      -0.120000
      4 N09         91.9590   -10.0230    13.4040 nc         1 IQV      -0.372300
      5 C10         89.7000   -10.1120    15.4720 c3         1 IQV      -0.142400
      6 C13         93.1460   -11.2140    11.0290 cf         1 IQV      -0.213800
      7 C17         93.6910   -13.1930     8.1960 cc         1 IQV       0.639500
      8 C19         96.0360   -11.1400     9.7120 c3         1 IQV       0.067900
      9 C20         93.2720   -14.1470     7.1920 cc         1 IQV      -0.246500
     10 C21         94.0210   -14.7170     6.1820 cd         1 IQV      -0.135000
     11 C24         91.9910   -14.7110     7.0290 cc         1 IQV       0.279900
     12 N01         90.8910    -8.1740    16.3350 nc         1 IQV      -0.649000
     13 C03         92.8890    -7.2740    15.3420 cd         1 IQV      -0.091300
     14 N06         92.7890    -8.2670    14.4130 na         1 IQV       0.314400
     15 N07         93.6140    -8.4930    13.3970 nd         1 IQV      -0.587100
     16 C08         93.0740    -9.5610    12.8160 cc         1 IQV       0.565600
     17 C12         93.6850   -10.1540    11.6410 ce         1 IQV      -0.230600
     18 C14         93.6330   -11.9170     9.8620 cd         1 IQV       0.463300
     19 N15         94.8590   -11.8730     9.3090 na         1 IQV      -0.042700
     20 N16         94.9040   -12.6790     8.2480 nd         1 IQV      -0.547800
     21 N18         92.8770   -12.7560     9.1730 nc         1 IQV      -0.686000
     22 N22         93.1940   -15.5350     5.5210 na         1 IQV      -0.004200
     23 N23         91.9600   -15.5500     6.0130 nd         1 IQV      -0.529800
     24 H1          91.9160    -6.5180    17.0580 h4         1 IQV       0.039100
     25 H17         89.0450    -9.9220    16.3190 hc         1 IQV       0.066033
     26 H26         89.1090   -10.0660    14.5560 hc         1 IQV       0.066033
     27 H28         90.0900   -11.1270    15.5500 hc         1 IQV       0.066033
     28 H18         94.9760    -6.8240    15.3130 hc         1 IQV       0.064367
     29 H30         93.9920    -5.7660    14.3080 hc         1 IQV       0.064367
     30 H31         93.9520    -5.5960    16.0670 hc         1 IQV       0.064367
     31 H33         92.2150   -11.6200    11.4080 ha         1 IQV       0.226000
     32 H34         96.8900   -11.5690     9.1980 h1         1 IQV       0.062033
     33 H35         95.9530   -10.0870     9.4470 h1         1 IQV       0.062033
     34 H36         96.1890   -11.2320    10.7860 h1         1 IQV       0.062033
     35 H37         95.0550   -14.5990     5.9020 h4         1 IQV       0.163000
     36 H39         91.1070   -14.5270     7.6200 h4         1 IQV       0.051100
     37 H53         94.5870    -9.6690    11.2950 ha         1 IQV       0.190000
     38 H38         93.4220   -16.1080     4.7230 hn         1 IQV       0.372000
     39 C11         94.0140    -6.3120    15.2520 c3         1 IQV      -0.041800
@<TRIPOS>BOND
     1     1    12 1   
     2     1    13 2   
     3     1    24 1   
     4     2     3 1   
     5     2     5 1   
     6     2    12 2   
     7     3     4 2   
     8     3    14 1   
     9     4    16 1   
    10     5    25 1   
    11     5    26 1   
    12     5    27 1   
    13     6    17 2   
    14     6    18 1   
    15     6    31 1   
    16     7     9 1   
    17     7    20 2   
    18     7    21 1   
    19     8    19 1   
    20     8    32 1   
    21     8    33 1   
    22     8    34 1   
    23     9    10 2   
    24     9    11 1   
    25    10    22 1   
    26    10    35 1   
    27    11    23 2   
    28    11    36 1   
    29    13    14 1   
    30    13    39 1   
    31    14    15 1   
    32    15    16 2   
    33    16    17 1   
    34    17    37 1   
    35    18    19 1   
    36    18    21 2   
    37    19    20 1   
    38    22    23 1   
    39    22    38 1   
    40    28    39 1   
    41    29    39 1   
    42    30    39 1   
@<TRIPOS>SUBSTRUCTURE
     1 IQV         1 TEMP              0 ****  ****    0 ROOT
