@<TRIPOS>MOLECULE
IQW
   31    33     1     0     0
SMALL
No Charge or Current Charge


@<TRIPOS>ATOM
      1 N1          -2.7170    -1.5900    -0.0800 nb         1 IQW      -0.355000
      2 C2          -3.6500    -0.6320     0.0080 ca         1 IQW       0.420900
      3 N3          -3.4680     0.6960     0.0740 nb         1 IQW      -0.303000
      4 C4          -2.1860     1.0990     0.0910 ca         1 IQW       0.189500
      5 C5          -1.1430     0.2010     0.0650 ca         1 IQW      -0.287800
      6 C6          -1.4470    -1.1650    -0.0590 ca         1 IQW       0.462900
      7 NAB         -4.9310    -1.0580    -0.0050 nv         1 IQW      -1.047900
      8 NAC         -0.5360    -2.1360    -0.2820 nv         1 IQW      -1.069900
      9 CAD          3.8080     0.7930    -0.6330 ca         1 IQW      -0.111500
     10 CAE          3.1970    -1.1010     0.7520 ca         1 IQW      -0.111500
     11 CAF          2.4740     1.2350    -0.6150 ca         1 IQW      -0.108000
     12 CAG          1.8630    -0.6590     0.7660 ca         1 IQW      -0.108000
     13 CAH         -0.2480     2.3410     0.0060 cc         1 IQW      -0.176100
     14 NAK         -1.6550     2.3730     0.0680 na         1 IQW      -0.321400
     15 CAL          4.1760    -0.3840     0.0420 ca         1 IQW      -0.077300
     16 CAN          1.4760     0.4970     0.0570 ca         1 IQW      -0.021800
     17 CAP          0.0840     0.9970     0.0840 cd         1 IQW      -0.042400
     18 HAA          6.1820    -0.4240     0.8650 hc         1 IQW       0.042033
     19 HAAA         5.6840    -1.9510     0.1170 hc         1 IQW       0.042033
     20 HAAB         6.1280    -0.5740    -0.9000 hc         1 IQW       0.042033
     21 HNAB        -5.1080    -2.0450     0.1610 hn         1 IQW       0.481500
     22 HNAA        -5.6600    -0.4060     0.2730 hn         1 IQW       0.481500
     23 HNAC        -0.8730    -3.0190    -0.6520 hn         1 IQW       0.494000
     24 HNAD         0.3950    -1.8460    -0.5660 hn         1 IQW       0.494000
     25 HAD          4.5570     1.3690    -1.1720 ha         1 IQW       0.111000
     26 HAE          3.4730    -1.9940     1.3100 ha         1 IQW       0.111000
     27 HAF          2.2140     2.1450    -1.1500 ha         1 IQW       0.118000
     28 HAG          1.1420    -1.1910     1.3810 ha         1 IQW       0.118000
     29 HAH          0.3720     3.2320    -0.0380 h4         1 IQW       0.218000
     30 HNAK        -2.2210     3.2150     0.0680 hn         1 IQW       0.360000
     31 CAA          5.6210    -0.8590     0.0300 c3         1 IQW      -0.046800
@<TRIPOS>BOND
     1     1     2 ar  
     2     1     6 ar  
     3     2     3 ar  
     4     2     7 1   
     5     3     4 ar  
     6     4     5 ar  
     7     4    14 1   
     8     5     6 ar  
     9     5    17 1   
    10     6     8 1   
    11     7    21 1   
    12     7    22 1   
    13     8    23 1   
    14     8    24 1   
    15     9    11 ar  
    16     9    15 ar  
    17     9    25 1   
    18    10    12 ar  
    19    10    15 ar  
    20    10    26 1   
    21    11    16 ar  
    22    11    27 1   
    23    12    16 ar  
    24    12    28 1   
    25    13    14 1   
    26    13    17 2   
    27    13    29 1   
    28    14    30 1   
    29    15    31 1   
    30    16    17 1   
    31    18    31 1   
    32    19    31 1   
    33    20    31 1   
@<TRIPOS>SUBSTRUCTURE
     1 IQW         1 TEMP              0 ****  ****    0 ROOT
