@<TRIPOS>MOLECULE
IQW
   31    33     1     0     0
SMALL
bcc


@<TRIPOS>ATOM
      1 N1          -2.7770    -1.5130    -0.1970 nb         1 IQW      -0.881000
      2 C2          -3.6940    -0.5460    -0.0440 ca         1 IQW       0.946900
      3 N3          -3.4660     0.7540     0.0920 nb         1 IQW      -0.829000
      4 C4          -2.1680     1.0540     0.1020 ca         1 IQW       0.517800
      5 C5          -1.0990     0.1540    -0.0010 ca         1 IQW      -0.418400
      6 C6          -1.4880    -1.1890    -0.1970 ca         1 IQW       0.791200
      7 NAB         -4.9920    -0.9490    -0.0870 nv         1 IQW      -0.937500
      8 NAC         -0.6040    -2.1870    -0.3740 nv         1 IQW      -0.959500
      9 CAD          3.7870     0.7040    -0.7570 ca         1 IQW      -0.129500
     10 CAE          3.2660    -0.9930     0.8350 ca         1 IQW      -0.129500
     11 CAF          2.4600     1.1070    -0.7670 ca         1 IQW      -0.126000
     12 CAG          1.9410    -0.5860     0.8390 ca         1 IQW      -0.126000
     13 CAH         -0.2780     2.2290     0.1680 cc         1 IQW      -0.126100
     14 NAK         -1.6490     2.2990     0.2010 na         1 IQW      -0.271100
     15 CAL          4.2160    -0.3540     0.0410 ca         1 IQW      -0.077300
     16 CAN          1.5100     0.4700     0.0320 ca         1 IQW      -0.021800
     17 CAP          0.1160     0.9250     0.0500 cd         1 IQW      -0.042400
     18 HAA          6.1910    -0.2850     0.8850 hc         1 IQW       0.042033
     19 HAAA         5.7600    -1.8480     0.2110 hc         1 IQW       0.042033
     20 HAAB         6.1680    -0.5040    -0.8580 hc         1 IQW       0.042033
     21 HNAB        -5.1740    -1.9240     0.0810 hn         1 IQW       0.426300
     22 HNAA        -5.6800    -0.3130     0.2790 hn         1 IQW       0.426300
     23 HNAC        -0.9510    -3.0860    -0.6610 hn         1 IQW       0.438800
     24 HNAD         0.3580    -1.9840    -0.5850 hn         1 IQW       0.438800
     25 HAD          4.4980     1.2160    -1.3950 ha         1 IQW       0.129000
     26 HAE          3.5660    -1.8200     1.4680 ha         1 IQW       0.129000
     27 HAF          2.1540     1.9190    -1.4150 ha         1 IQW       0.136000
     28 HAG          1.2370    -1.0840     1.4960 ha         1 IQW       0.136000
     29 HAH          0.3230     3.1180     0.2670 h4         1 IQW       0.168000
     30 HNAK        -2.1860     3.1460     0.2920 hn         1 IQW       0.309700
     31 CAA          5.6570    -0.7730     0.0660 c3         1 IQW      -0.046800
@<TRIPOS>BOND
     1     1     2 ar  
     2     1     6 ar  
     3     2     3 ar  
     4     2     7 1   
     5     3     4 ar  
     6     4     5 ar  
     7     4    14 1   
     8     5     6 ar  
     9     5    17 1   
    10     6     8 1   
    11     7    21 1   
    12     7    22 1   
    13     8    23 1   
    14     8    24 1   
    15     9    11 ar  
    16     9    15 ar  
    17     9    25 1   
    18    10    12 ar  
    19    10    15 ar  
    20    10    26 1   
    21    11    16 ar  
    22    11    27 1   
    23    12    16 ar  
    24    12    28 1   
    25    13    14 1   
    26    13    17 2   
    27    13    29 1   
    28    14    30 1   
    29    15    31 1   
    30    16    17 1   
    31    18    31 1   
    32    19    31 1   
    33    20    31 1   
@<TRIPOS>SUBSTRUCTURE
     1 IQW         1 TEMP              0 ****  ****    0 ROOT
