@<TRIPOS>MOLECULE
IQX
   44    46     1     0     0
SMALL
No Charge or Current Charge


@<TRIPOS>ATOM
      1 N1         -11.8840   -12.9310    10.8000 nb         1 IQX      -0.678000
      2 C2         -11.5540   -11.8220    11.5010 ca         1 IQX       0.535200
      3 C3         -12.8060   -12.7830     9.8210 ca         1 IQX       0.366900
      4 C4         -12.1080   -10.5270    11.2800 ca         1 IQX       0.173000
      5 C5         -13.4290   -11.5500     9.5180 ca         1 IQX      -0.036000
      6 C6         -13.0870   -10.4160    10.2770 ca         1 IQX      -0.062000
      7 C7         -14.4120   -11.4290     8.4420 cc         1 IQX      -0.246000
      8 C8         -14.1070   -11.7400     7.1330 cd         1 IQX       0.345300
      9 N9         -15.1470   -11.5160     6.2450 nd         1 IQX      -0.716000
     10 C10        -16.1930   -11.0190     6.8840 cc         1 IQX       0.550300
     11 S11        -16.0050   -10.7630     8.6100 ss         1 IQX       0.078600
     12 C12        -12.7950   -12.2570     6.6080 c3         1 IQX      -0.127400
     13 N13        -17.3030   -10.7470     6.1300 ns         1 IQX      -0.471400
     14 C14        -18.5070   -10.2320     6.5290 c          1 IQX       0.602100
     15 C15        -19.5230   -10.0600     5.4080 c3         1 IQX      -0.168100
     16 O16        -18.7630    -9.9290     7.6840 o          1 IQX      -0.571100
     17 N17        -11.6910    -9.3800    11.9910 nu         1 IQX      -0.845100
     18 S18        -11.2030    -7.9200    11.3340 sy         1 IQX       1.215600
     19 O19        -10.0920    -7.5290    12.2000 o          1 IQX      -0.531500
     20 O20        -12.4270    -7.1350    11.1820 o          1 IQX      -0.531500
     21 C21        -10.5800    -8.4580     9.7730 cc         1 IQX      -0.523500
     22 C22        -11.0810    -8.1490     8.5320 cd         1 IQX       0.465300
     23 S23         -9.1840    -9.4950     9.6630 ss         1 IQX       0.057600
     24 C24         -9.4110    -9.4900     7.9370 cc         1 IQX       0.489700
     25 N25        -10.4130    -8.7550     7.4800 nd         1 IQX      -0.683000
     26 C26        -12.2430    -7.2590     8.1950 c3         1 IQX      -0.152400
     27 C27         -8.5150   -10.2910     7.0420 c3         1 IQX      -0.139400
     28 F28        -10.6030   -12.0140    12.4450 f          1 IQX      -0.231200
     29 H3         -13.0600   -13.6830     9.2630 h4         1 IQX       0.038100
     30 H6         -13.5620    -9.4610    10.0770 ha         1 IQX       0.163000
     31 H12        -12.7140   -12.1100     5.5250 hc         1 IQX       0.054367
     32 H12A       -11.9510   -11.7350     7.0740 hc         1 IQX       0.054367
     33 H12B       -12.6890   -13.3290     6.8090 hc         1 IQX       0.054367
     34 H15        -20.4740    -9.6470     5.7620 hc         1 IQX       0.071700
     35 H15A       -19.0830    -9.4420     4.6180 hc         1 IQX       0.071700
     36 H15B       -19.6640   -11.0220     4.9030 hc         1 IQX       0.071700
     37 HN17       -10.9990    -9.5350    12.7150 hn         1 IQX       0.497000
     38 H26        -12.3570    -7.1460     7.1110 hc         1 IQX       0.072700
     39 H26A       -13.1820    -7.6680     8.5820 hc         1 IQX       0.072700
     40 H26B       -12.1030    -6.2580     8.6160 hc         1 IQX       0.072700
     41 H27         -7.4750   -10.2360     7.3830 hc         1 IQX       0.066367
     42 H27A        -8.8200   -11.3430     7.0380 hc         1 IQX       0.066367
     43 H27B        -8.5540    -9.9200     6.0110 hc         1 IQX       0.066367
     44 HN13       -17.2250   -10.9550     5.1460 hn         1 IQX       0.341500
@<TRIPOS>BOND
     1     1     2 ar  
     2     1     3 ar  
     3     2     4 ar  
     4     2    28 1   
     5     3     5 ar  
     6     3    29 1   
     7     4     6 ar  
     8     4    17 1   
     9     5     6 ar  
    10     5     7 1   
    11     6    30 1   
    12     7     8 2   
    13     7    11 1   
    14     8     9 1   
    15     8    12 1   
    16     9    10 2   
    17    10    11 1   
    18    10    13 1   
    19    12    31 1   
    20    12    32 1   
    21    12    33 1   
    22    13    14 1   
    23    13    44 1   
    24    14    15 1   
    25    14    16 2   
    26    15    34 1   
    27    15    35 1   
    28    15    36 1   
    29    17    18 1   
    30    17    37 1   
    31    18    19 2   
    32    18    20 2   
    33    18    21 1   
    34    21    22 2   
    35    21    23 1   
    36    22    25 1   
    37    22    26 1   
    38    23    24 1   
    39    24    25 2   
    40    24    27 1   
    41    26    38 1   
    42    26    39 1   
    43    26    40 1   
    44    27    41 1   
    45    27    42 1   
    46    27    43 1   
@<TRIPOS>SUBSTRUCTURE
     1 IQX         1 TEMP              0 ****  ****    0 ROOT
