@<TRIPOS>MOLECULE
IQX
   44    46     1     0     0
SMALL
abcg2


@<TRIPOS>ATOM
      1 N1         -11.8480   -12.6680    10.0350 nb         1 IQX      -0.678000
      2 C2         -11.6160   -11.6420    10.8000 ca         1 IQX       0.535200
      3 C3         -12.8540   -12.5810     9.1570 ca         1 IQX       0.366900
      4 C4         -12.3600   -10.4600    10.8100 ca         1 IQX       0.173000
      5 C5         -13.6600   -11.4480     9.0370 ca         1 IQX      -0.036000
      6 C6         -13.4110   -10.3860     9.9130 ca         1 IQX      -0.062000
      7 C7         -14.7150   -11.3710     8.0280 cc         1 IQX      -0.246000
      8 C8         -14.6780   -11.7430     6.7100 cd         1 IQX       0.345300
      9 N9         -15.8480   -11.5220     6.0160 nd         1 IQX      -0.716000
     10 C10        -16.7610   -10.9890     6.7770 cc         1 IQX       0.550300
     11 S11        -16.2830   -10.7020     8.4180 ss         1 IQX       0.078600
     12 C12        -13.5110   -12.3130     5.9710 c3         1 IQX      -0.127400
     13 N13        -18.0120   -10.6820     6.2850 ns         1 IQX      -0.471400
     14 C14        -19.0280   -10.1150     7.0050 c          1 IQX       0.602100
     15 C15        -20.3120    -9.8880     6.2570 c3         1 IQX      -0.168100
     16 O16        -18.8840    -9.8340     8.1890 o          1 IQX      -0.571100
     17 N17        -12.0150    -9.3890    11.6670 nu         1 IQX      -0.845100
     18 S18        -11.5240    -7.9440    10.9790 sy         1 IQX       1.215600
     19 O19        -10.9510    -7.2020    12.0720 o          1 IQX      -0.531500
     20 O20        -12.6450    -7.4150    10.2510 o          1 IQX      -0.531500
     21 C21        -10.2610    -8.3570     9.8550 cc         1 IQX      -0.523500
     22 C22        -10.3280    -8.6960     8.5200 cd         1 IQX       0.465300
     23 S23         -8.6500    -8.5700    10.4610 ss         1 IQX       0.057600
     24 C24         -8.1600    -9.0840     8.8860 cc         1 IQX       0.489700
     25 N25         -9.1210    -9.0930     8.0020 nd         1 IQX      -0.683000
     26 C26        -11.5080    -8.6830     7.6090 c3         1 IQX      -0.152400
     27 C27         -6.7480    -9.4570     8.5910 c3         1 IQX      -0.139400
     28 F28        -10.5820   -11.7500    11.6590 f          1 IQX      -0.231200
     29 H3         -13.0270   -13.4500     8.5370 h4         1 IQX       0.038100
     30 H6         -14.0080    -9.4860     9.8730 ha         1 IQX       0.163000
     31 H12        -13.4750   -11.8960     4.9640 hc         1 IQX       0.054367
     32 H12A       -12.5720   -12.0920     6.4760 hc         1 IQX       0.054367
     33 H12B       -13.5980   -13.3990     5.8770 hc         1 IQX       0.054367
     34 H15        -20.6880    -8.8940     6.4980 hc         1 IQX       0.071700
     35 H15A       -20.1970    -9.9880     5.1790 hc         1 IQX       0.071700
     36 H15B       -21.0470   -10.6180     6.6040 hc         1 IQX       0.071700
     37 HN17       -11.3750    -9.6470    12.4110 hn         1 IQX       0.497000
     38 H26        -11.2790    -8.0720     6.7330 hc         1 IQX       0.072700
     39 H26A       -11.7060    -9.6980     7.2570 hc         1 IQX       0.072700
     40 H26B       -12.3980    -8.2960     8.0910 hc         1 IQX       0.072700
     41 H27         -6.1290    -9.4280     9.4860 hc         1 IQX       0.066367
     42 H27A        -6.7160   -10.4640     8.1710 hc         1 IQX       0.066367
     43 H27B        -6.3310    -8.7700     7.8520 hc         1 IQX       0.066367
     44 HN13       -18.1590   -10.9030     5.3100 hn         1 IQX       0.341500
@<TRIPOS>BOND
     1     1     2 ar  
     2     1     3 ar  
     3     2     4 ar  
     4     2    28 1   
     5     3     5 ar  
     6     3    29 1   
     7     4     6 ar  
     8     4    17 1   
     9     5     6 ar  
    10     5     7 1   
    11     6    30 1   
    12     7     8 2   
    13     7    11 1   
    14     8     9 1   
    15     8    12 1   
    16     9    10 2   
    17    10    11 1   
    18    10    13 1   
    19    12    31 1   
    20    12    32 1   
    21    12    33 1   
    22    13    14 1   
    23    13    44 1   
    24    14    15 1   
    25    14    16 2   
    26    15    34 1   
    27    15    35 1   
    28    15    36 1   
    29    17    18 1   
    30    17    37 1   
    31    18    19 2   
    32    18    20 2   
    33    18    21 1   
    34    21    22 2   
    35    21    23 1   
    36    22    25 1   
    37    22    26 1   
    38    23    24 1   
    39    24    25 2   
    40    24    27 1   
    41    26    38 1   
    42    26    39 1   
    43    26    40 1   
    44    27    41 1   
    45    27    42 1   
    46    27    43 1   
@<TRIPOS>SUBSTRUCTURE
     1 IQX         1 TEMP              0 ****  ****    0 ROOT
