@<TRIPOS>MOLECULE
IQY
   51    54     1     0     0
SMALL
No Charge or Current Charge


@<TRIPOS>ATOM
      1 N1          71.7190    38.2650     0.5790 nb         1 IQY      -0.262000
      2 C2          66.6020    34.7660     4.1020 c3         1 IQY       0.279100
      3 N3          73.5250    37.5710    -0.8400 nb         1 IQY      -0.242000
      4 C4          67.2150    37.1070     2.9310 cg         1 IQY      -0.093000
      5 C5          67.5840    38.3440     2.3080 ca         1 IQY      -0.009000
      6 C6          66.7800    39.4950     2.4870 ca         1 IQY      -0.066000
      7 O           65.6310    34.0900     3.3030 oh         1 IQY      -0.648000
      8 C1          67.8810    33.8760     4.1970 c3         1 IQY      -0.099900
      9 C           68.5940    33.5610     2.8560 c3         1 IQY      -0.089600
     10 C20         65.9750    35.0490     5.5020 c3         1 IQY      -0.099900
     11 C21         65.5170    33.8140     6.3180 c3         1 IQY      -0.089600
     12 C3          66.9150    36.0530     3.4560 c1         1 IQY      -0.125100
     13 C12         68.7480    38.4090     1.5100 ca         1 IQY      -0.020000
     14 C11         69.0820    39.6400     0.9190 ca         1 IQY      -0.063800
     15 C8          68.2940    40.7430     1.0820 ca         1 IQY      -0.050200
     16 C7          67.1320    40.7110     1.8650 ca         1 IQY      -0.136000
     17 C10         70.1680    40.0250     0.0490 cc         1 IQY      -0.218000
     18 C13         71.3610    39.2290    -0.2980 ca         1 IQY       0.280800
     19 C16         72.0950    39.3930    -1.4980 ca         1 IQY      -0.246300
     20 C15         73.1830    38.5260    -1.7220 ca         1 IQY       0.145900
     21 C14         72.7690    37.5010     0.2610 ca         1 IQY       0.369900
     22 N2          73.1070    36.5440     1.1610 nv         1 IQY      -1.051900
     23 C17         71.7930    40.4880    -2.5030 c3         1 IQY      -0.006100
     24 C18         71.9980    41.8610    -1.8500 c3         1 IQY      -0.065400
     25 C19         70.7610    42.3760    -1.0960 c3         1 IQY      -0.026200
     26 C9          69.9810    41.3810    -0.2600 cd         1 IQY      -0.014300
     27 N           68.7970    41.8200     0.3780 na         1 IQY      -0.218700
     28 H1          65.8830    39.4440     3.1000 ha         1 IQY       0.122000
     29 H2          65.4650    33.2300     3.7420 ho         1 IQY       0.443000
     30 H3          67.6260    32.9180     4.6660 hc         1 IQY       0.049200
     31 H4          68.6030    34.3590     4.8670 hc         1 IQY       0.049200
     32 H5          69.4470    32.8940     3.0300 hc         1 IQY       0.036367
     33 H6          67.9140    33.0630     2.1540 hc         1 IQY       0.036367
     34 H7          68.9750    34.4730     2.3820 hc         1 IQY       0.036367
     35 H8          66.6970    35.6100     6.1090 hc         1 IQY       0.049200
     36 H9          65.1070    35.7090     5.3760 hc         1 IQY       0.049200
     37 H10         65.0480    34.1380     7.2550 hc         1 IQY       0.036367
     38 H11         64.7810    33.2180     5.7650 hc         1 IQY       0.036367
     39 H12         66.3650    33.1700     6.5800 hc         1 IQY       0.036367
     40 H13         69.3560    37.5220     1.3560 ha         1 IQY       0.142000
     41 H14         66.5140    41.5970     1.9890 ha         1 IQY       0.115000
     42 H15         73.7990    38.6020    -2.6170 h4         1 IQY       0.015100
     43 H16         74.0090    36.0830     1.0650 hn         1 IQY       0.484500
     44 H17         72.7090    36.5870     2.0950 hn         1 IQY       0.484500
     45 H18         70.7720    40.3960    -2.8960 hc         1 IQY       0.047700
     46 H19         72.4640    40.4060    -3.3670 hc         1 IQY       0.047700
     47 H20         72.8560    41.8180    -1.1660 hc         1 IQY       0.049700
     48 H21         72.2590    42.5920    -2.6250 hc         1 IQY       0.049700
     49 H22         71.0700    43.2180    -0.4660 hc         1 IQY       0.051200
     50 H23         70.0780    42.8010    -1.8420 hc         1 IQY       0.051200
     51 H24         68.4010    42.7530     0.3350 hn         1 IQY       0.349000
@<TRIPOS>BOND
     1     1    18 ar  
     2     1    21 ar  
     3     2     7 1   
     4     2     8 1   
     5     2    10 1   
     6     2    12 1   
     7     3    20 ar  
     8     3    21 ar  
     9     4     5 1   
    10     4    12 3   
    11     5     6 ar  
    12     5    13 ar  
    13     6    16 ar  
    14     6    28 1   
    15     7    29 1   
    16     8     9 1   
    17     8    30 1   
    18     8    31 1   
    19     9    32 1   
    20     9    33 1   
    21     9    34 1   
    22    10    11 1   
    23    10    35 1   
    24    10    36 1   
    25    11    37 1   
    26    11    38 1   
    27    11    39 1   
    28    13    14 ar  
    29    13    40 1   
    30    14    15 ar  
    31    14    17 1   
    32    15    16 ar  
    33    15    27 1   
    34    16    41 1   
    35    17    18 1   
    36    17    26 2   
    37    18    19 ar  
    38    19    20 ar  
    39    19    23 1   
    40    20    42 1   
    41    21    22 1   
    42    22    43 1   
    43    22    44 1   
    44    23    24 1   
    45    23    45 1   
    46    23    46 1   
    47    24    25 1   
    48    24    47 1   
    49    24    48 1   
    50    25    26 1   
    51    25    49 1   
    52    25    50 1   
    53    26    27 1   
    54    27    51 1   
@<TRIPOS>SUBSTRUCTURE
     1 IQY         1 TEMP              0 ****  ****    0 ROOT
