@<TRIPOS>MOLECULE
IQY
   51    54     1     0     0
SMALL
abcg2


@<TRIPOS>ATOM
      1 N1          71.6250    38.2870     0.7700 nb         1 IQY      -0.262000
      2 C2          66.6380    34.8710     4.2180 c3         1 IQY       0.279100
      3 N3          73.6940    37.7110    -0.2240 nb         1 IQY      -0.242000
      4 C4          67.1780    37.1200     2.8770 cg         1 IQY      -0.093000
      5 C5          67.4930    38.2990     2.1360 ca         1 IQY      -0.009000
      6 C6          66.5370    39.3280     2.0140 ca         1 IQY      -0.066000
      7 O           65.2550    34.6210     4.0340 oh         1 IQY      -0.648000
      8 C1          67.4930    33.7340     3.6280 c3         1 IQY      -0.099900
      9 C           67.2780    33.4840     2.1430 c3         1 IQY      -0.089600
     10 C20         66.9660    35.0990     5.7090 c3         1 IQY      -0.099900
     11 C21         66.6660    33.9160     6.6230 c3         1 IQY      -0.089600
     12 C3          66.9210    36.1130     3.4870 c1         1 IQY      -0.125100
     13 C12         68.7450    38.4160     1.5390 ca         1 IQY      -0.020000
     14 C11         69.0520    39.5660     0.8090 ca         1 IQY      -0.063800
     15 C8          68.0700    40.5690     0.7010 ca         1 IQY      -0.050200
     16 C7          66.8140    40.4690     1.2930 ca         1 IQY      -0.136000
     17 C10         70.1980    40.0210     0.0520 cc         1 IQY      -0.218000
     18 C13         71.4370    39.2740    -0.1070 ca         1 IQY       0.280800
     19 C16         72.3860    39.5210    -1.1140 ca         1 IQY      -0.246300
     20 C15         73.4970    38.6930    -1.0900 ca         1 IQY       0.145900
     21 C14         72.7250    37.5470     0.6770 ca         1 IQY       0.369900
     22 N2          72.8540    36.5190     1.5530 nv         1 IQY      -1.051900
     23 C17         72.2680    40.5950    -2.1490 c3         1 IQY      -0.006100
     24 C18         72.0460    41.9850    -1.5550 c3         1 IQY      -0.065400
     25 C19         70.5810    42.2720    -1.2870 c3         1 IQY      -0.026200
     26 C9          69.8600    41.2660    -0.4560 cd         1 IQY      -0.014300
     27 N           68.5960    41.5710    -0.0580 na         1 IQY      -0.218700
     28 H1          65.5720    39.2140     2.4910 ha         1 IQY       0.122000
     29 H2          65.0560    33.7490     4.3930 ho         1 IQY       0.443000
     30 H3          67.2710    32.8170     4.1810 hc         1 IQY       0.049200
     31 H4          68.5440    33.9580     3.8210 hc         1 IQY       0.049200
     32 H5          67.8880    32.6440     1.8110 hc         1 IQY       0.036367
     33 H6          66.2390    33.2430     1.9220 hc         1 IQY       0.036367
     34 H7          67.5580    34.3500     1.5430 hc         1 IQY       0.036367
     35 H8          68.0240    35.3620     5.7900 hc         1 IQY       0.049200
     36 H9          66.4030    35.9710     6.0500 hc         1 IQY       0.049200
     37 H10         66.8880    34.1840     7.6560 hc         1 IQY       0.036367
     38 H11         65.6150    33.6260     6.5910 hc         1 IQY       0.036367
     39 H12         67.2650    33.0390     6.3820 hc         1 IQY       0.036367
     40 H13         69.4690    37.6240     1.6490 ha         1 IQY       0.142000
     41 H14         66.0810    41.2590     1.1920 ha         1 IQY       0.115000
     42 H15         74.2780    38.8390    -1.8320 h4         1 IQY       0.015100
     43 H16         73.7690    36.1170     1.6680 hn         1 IQY       0.484500
     44 H17         72.2760    36.5330     2.3760 hn         1 IQY       0.484500
     45 H18         71.4560    40.3690    -2.8490 hc         1 IQY       0.047700
     46 H19         73.1840    40.5920    -2.7440 hc         1 IQY       0.047700
     47 H20         72.6330    42.0970    -0.6410 hc         1 IQY       0.049700
     48 H21         72.4070    42.7440    -2.2510 hc         1 IQY       0.049700
     49 H22         70.4800    43.2500    -0.8070 hc         1 IQY       0.051200
     50 H23         70.0530    42.3560    -2.2430 hc         1 IQY       0.051200
     51 H24         68.1230    42.4330    -0.2850 hn         1 IQY       0.349000
@<TRIPOS>BOND
     1     1    18 ar  
     2     1    21 ar  
     3     2     7 1   
     4     2     8 1   
     5     2    10 1   
     6     2    12 1   
     7     3    20 ar  
     8     3    21 ar  
     9     4     5 1   
    10     4    12 3   
    11     5     6 ar  
    12     5    13 ar  
    13     6    16 ar  
    14     6    28 1   
    15     7    29 1   
    16     8     9 1   
    17     8    30 1   
    18     8    31 1   
    19     9    32 1   
    20     9    33 1   
    21     9    34 1   
    22    10    11 1   
    23    10    35 1   
    24    10    36 1   
    25    11    37 1   
    26    11    38 1   
    27    11    39 1   
    28    13    14 ar  
    29    13    40 1   
    30    14    15 ar  
    31    14    17 1   
    32    15    16 ar  
    33    15    27 1   
    34    16    41 1   
    35    17    18 1   
    36    17    26 2   
    37    18    19 ar  
    38    19    20 ar  
    39    19    23 1   
    40    20    42 1   
    41    21    22 1   
    42    22    43 1   
    43    22    44 1   
    44    23    24 1   
    45    23    45 1   
    46    23    46 1   
    47    24    25 1   
    48    24    47 1   
    49    24    48 1   
    50    25    26 1   
    51    25    49 1   
    52    25    50 1   
    53    26    27 1   
    54    27    51 1   
@<TRIPOS>SUBSTRUCTURE
     1 IQY         1 TEMP              0 ****  ****    0 ROOT
