@<TRIPOS>MOLECULE
IQZ
   34    37     1     0     0
SMALL
abcg2


@<TRIPOS>ATOM
      1 C1           3.2040    -1.7820     0.1080 ca         1 IQZ      -0.123000
      2 C2           2.0160    -1.0640     0.1360 ca         1 IQZ      -0.063200
      3 C3           1.9690     0.3320    -0.0420 ca         1 IQZ      -0.040800
      4 C4           3.1590     1.0310    -0.2540 ca         1 IQZ      -0.056000
      5 C5           4.3470     0.3230    -0.2820 ca         1 IQZ      -0.131000
      6 C6           4.3700    -1.0670    -0.1030 ca         1 IQZ      -0.096000
      7 N7           0.7230    -1.5060     0.3270 na         1 IQZ      -0.204700
      8 C8          -0.1280    -0.4650     0.2780 cc         1 IQZ       0.001700
      9 C9           0.5830     0.6950     0.0530 cd         1 IQZ      -0.238400
     10 C10         -1.6060    -0.5400     0.4500 c6         1 IQZ       0.234700
     11 N11         -2.1810     0.6570    -0.1490 n3         1 IQZ      -0.710600
     12 C12         -1.5740     1.8890     0.3210 c6         1 IQZ       0.063800
     13 C13         -0.0810     1.9660     0.0590 c          1 IQZ       0.621300
     14 C16         -2.2020    -1.7960    -0.1850 c6         1 IQZ      -0.075400
     15 C17         -3.7170    -1.7980    -0.0460 c6         1 IQZ      -0.074400
     16 C18         -4.2940    -0.5090    -0.6120 c6         1 IQZ      -0.077400
     17 C19         -3.6260     0.7000     0.0190 c6         1 IQZ       0.170800
     18 O29          0.4860     3.0400    -0.0680 o          1 IQZ      -0.540100
     19 H1           3.2210    -2.8560     0.2460 ha         1 IQZ       0.113000
     20 H4           3.1520     2.1040    -0.3910 ha         1 IQZ       0.135000
     21 H5           5.2780     0.8500    -0.4460 ha         1 IQZ       0.113000
     22 H6           5.3170    -1.5920    -0.1300 ha         1 IQZ       0.111000
     23 HN7          0.4630    -2.4680     0.4800 hn         1 IQZ       0.351000
     24 H10         -1.8150    -0.5790     1.5380 h1         1 IQZ       0.039700
     25 H121        -2.0560     2.7290    -0.1820 h1         1 IQZ       0.059700
     26 H122        -1.7200     2.0440     1.4060 h1         1 IQZ       0.059700
     27 H161        -1.9220    -1.8290    -1.2420 hc         1 IQZ       0.049200
     28 H162        -1.7820    -2.6840     0.2930 hc         1 IQZ       0.049200
     29 H171        -4.1380    -2.6680    -0.5530 hc         1 IQZ       0.042700
     30 H172        -3.9850    -1.8900     1.0120 hc         1 IQZ       0.042700
     31 H181        -4.1420    -0.4800    -1.6950 hc         1 IQZ       0.052200
     32 H182        -5.3700    -0.4550    -0.4390 hc         1 IQZ       0.052200
     33 H191        -3.9020     0.7600     1.0860 h1         1 IQZ       0.035200
     34 H192        -3.9940     1.6150    -0.4510 h1         1 IQZ       0.035200
@<TRIPOS>BOND
     1     1     2 ar  
     2     1     6 ar  
     3     1    19 1   
     4     2     3 ar  
     5     2     7 1   
     6     3     4 ar  
     7     3     9 1   
     8     4     5 ar  
     9     4    20 1   
    10     5     6 ar  
    11     5    21 1   
    12     6    22 1   
    13     7     8 1   
    14     7    23 1   
    15     8     9 2   
    16     8    10 1   
    17     9    13 1   
    18    10    11 1   
    19    10    14 1   
    20    10    24 1   
    21    11    12 1   
    22    11    17 1   
    23    12    13 1   
    24    12    25 1   
    25    12    26 1   
    26    13    18 2   
    27    14    15 1   
    28    14    27 1   
    29    14    28 1   
    30    15    16 1   
    31    15    29 1   
    32    15    30 1   
    33    16    17 1   
    34    16    31 1   
    35    16    32 1   
    36    17    33 1   
    37    17    34 1   
@<TRIPOS>SUBSTRUCTURE
     1 IQZ         1 TEMP              0 ****  ****    0 ROOT
