@<TRIPOS>MOLECULE
IQZ
   34    37     1     0     0
SMALL
No Charge or Current Charge


@<TRIPOS>ATOM
      1 C1           3.2920    -1.7800     0.0520 ca         1 IQZ      -0.123000
      2 C2           2.0800    -1.0820     0.1180 ca         1 IQZ      -0.063200
      3 C3           2.0340     0.2840     0.0090 ca         1 IQZ      -0.040800
      4 C4           3.1880     1.0590    -0.1720 ca         1 IQZ      -0.056000
      5 C5           4.4240     0.3800    -0.2420 ca         1 IQZ      -0.131000
      6 C6           4.4760    -1.0320    -0.1310 ca         1 IQZ      -0.096000
      7 N7           0.7950    -1.5810     0.2910 na         1 IQZ      -0.204700
      8 C8          -0.1340    -0.5190     0.2920 cc         1 IQZ       0.001700
      9 C9           0.6340     0.6220     0.1260 cd         1 IQZ      -0.238400
     10 C10         -1.6460    -0.5460     0.4570 c6         1 IQZ       0.234700
     11 N11         -2.2350     0.6720    -0.1890 n3         1 IQZ      -0.710600
     12 C12         -1.5480     1.9340     0.2690 c6         1 IQZ       0.063800
     13 C13          0.0010     1.9650     0.0820 c          1 IQZ       0.621300
     14 C16         -2.2680    -1.8310    -0.1520 c6         1 IQZ      -0.075400
     15 C17         -3.8100    -1.8150    -0.0110 c6         1 IQZ      -0.074400
     16 C18         -4.3960    -0.5130    -0.6060 c6         1 IQZ      -0.077400
     17 C19         -3.7090     0.7390    -0.0060 c6         1 IQZ       0.170800
     18 O29          0.6250     3.0090    -0.0880 o          1 IQZ      -0.540100
     19 H1           3.3230    -2.8640     0.1390 ha         1 IQZ       0.113000
     20 H4           3.1380     2.1410    -0.2560 ha         1 IQZ       0.135000
     21 H5           5.3430     0.9450    -0.3820 ha         1 IQZ       0.113000
     22 H6           5.4350    -1.5430    -0.1860 ha         1 IQZ       0.111000
     23 HN7          0.5610    -2.5610     0.4000 hn         1 IQZ       0.351000
     24 H10         -1.8760    -0.5340     1.5330 h1         1 IQZ       0.039700
     25 H121        -1.9460     2.8070    -0.2690 h1         1 IQZ       0.059700
     26 H122        -1.7260     2.0960     1.3420 h1         1 IQZ       0.059700
     27 H161        -1.9930    -1.9090    -1.2130 hc         1 IQZ       0.049200
     28 H162        -1.8630    -2.7210     0.3480 hc         1 IQZ       0.049200
     29 H171        -4.2450    -2.6900    -0.5140 hc         1 IQZ       0.042700
     30 H172        -4.0850    -1.8930     1.0510 hc         1 IQZ       0.042700
     31 H181        -4.2640    -0.5120    -1.6960 hc         1 IQZ       0.052200
     32 H182        -5.4780    -0.4680    -0.4210 hc         1 IQZ       0.052200
     33 H191        -3.9580     0.8110     1.0630 h1         1 IQZ       0.035200
     34 H192        -4.1150     1.6350    -0.4970 h1         1 IQZ       0.035200
@<TRIPOS>BOND
     1     1     2 ar  
     2     1     6 ar  
     3     1    19 1   
     4     2     3 ar  
     5     2     7 1   
     6     3     4 ar  
     7     3     9 1   
     8     4     5 ar  
     9     4    20 1   
    10     5     6 ar  
    11     5    21 1   
    12     6    22 1   
    13     7     8 1   
    14     7    23 1   
    15     8     9 2   
    16     8    10 1   
    17     9    13 1   
    18    10    11 1   
    19    10    14 1   
    20    10    24 1   
    21    11    12 1   
    22    11    17 1   
    23    12    13 1   
    24    12    25 1   
    25    12    26 1   
    26    13    18 2   
    27    14    15 1   
    28    14    27 1   
    29    14    28 1   
    30    15    16 1   
    31    15    29 1   
    32    15    30 1   
    33    16    17 1   
    34    16    31 1   
    35    16    32 1   
    36    17    33 1   
    37    17    34 1   
@<TRIPOS>SUBSTRUCTURE
     1 IQZ         1 TEMP              0 ****  ****    0 ROOT
