@<TRIPOS>MOLECULE
IR2
   55    60     1     0     0
SMALL
No Charge or Current Charge


@<TRIPOS>ATOM
      1 C01         -7.7260    -0.4970    -0.1170 c6         1 IR2       0.163300
      2 C02         -9.0460    -0.1810     0.6490 c6         1 IR2       0.146100
      3 C04         -8.3920     2.1070     1.0000 c6         1 IR2       0.146100
      4 C05         -7.0420     1.8940     0.2510 c6         1 IR2       0.163300
      5 C07         -5.2620     0.1130     0.0250 ca         1 IR2       0.320000
      6 C08         -4.2590     0.6870     0.8240 ca         1 IR2      -0.166000
      7 C09         -2.9060     0.3620     0.6290 ca         1 IR2      -0.057000
      8 C10         -2.5120    -0.5250    -0.3990 ca         1 IR2      -0.027400
      9 C11         -3.5300    -1.1440    -1.1610 ca         1 IR2      -0.057000
     10 C12         -4.8830    -0.8140    -0.9630 ca         1 IR2      -0.166000
     11 C14         -0.8410    -2.2690    -0.8440 cc         1 IR2       0.515800
     12 C16          1.4410    -1.9460    -0.8760 ca         1 IR2       0.188400
     13 C17          2.7330    -2.4760    -1.0360 ca         1 IR2      -0.107000
     14 C18          3.8690    -1.6620    -0.9070 ca         1 IR2      -0.062000
     15 C19          3.7400    -0.2880    -0.6050 cp         1 IR2      -0.073000
     16 C20          2.4380     0.2410    -0.4600 ca         1 IR2      -0.025000
     17 C21          1.2970    -0.5830    -0.5880 ca         1 IR2      -0.205600
     18 C22         -0.0690    -0.0210    -0.4380 c          1 IR2       0.575600
     19 C24          4.9380     0.5960    -0.4860 cp         1 IR2       0.015000
     20 C25          5.0590     1.7130    -1.3390 ca         1 IR2      -0.158000
     21 C26          6.1880     2.5370    -1.2620 ca         1 IR2       0.352900
     22 C28          7.1070     1.2640     0.4540 ca         1 IR2       0.265000
     23 C29          8.1490     1.0410     1.3740 ca         1 IR2      -0.082000
     24 C30          8.1000    -0.0270     2.2840 ca         1 IR2      -0.103000
     25 C31          6.9940    -0.8880     2.2870 ca         1 IR2      -0.107000
     26 C32          5.9450    -0.6860     1.3780 ca         1 IR2      -0.093000
     27 C33          5.9920     0.3780     0.4460 ca         1 IR2      -0.069000
     28 N06         -6.6200     0.4530     0.2390 nh         1 IR2      -0.791400
     29 N13         -1.1250    -0.9400    -0.5170 n          1 IR2      -0.252500
     30 N15          0.3630    -2.8220    -1.0230 nd         1 IR2      -0.628100
     31 N27          7.1950     2.3180    -0.3900 nb         1 IR2      -0.658000
     32 O03         -9.4090     1.2110     0.4950 os         1 IR2      -0.441000
     33 H1          -7.4310    -1.5300     0.1190 h1         1 IR2       0.050450
     34 H2          -7.9260    -0.4520    -1.1980 h1         1 IR2       0.050450
     35 H3          -9.8600    -0.8110     0.2640 h1         1 IR2       0.054450
     36 H4          -8.9190    -0.4050     1.7180 h1         1 IR2       0.054450
     37 H5          -8.2530     1.9260     2.0760 h1         1 IR2       0.054450
     38 H6          -8.7290     3.1450     0.8710 h1         1 IR2       0.054450
     39 H7          -7.1520     2.2550    -0.7820 h1         1 IR2       0.050450
     40 H8          -6.2800     2.5230     0.7320 h1         1 IR2       0.050450
     41 H9          -4.5300     1.3720     1.6210 ha         1 IR2       0.119000
     42 H10         -2.1670     0.7940     1.2990 ha         1 IR2       0.123500
     43 H11         -3.2840    -1.8550    -1.9460 ha         1 IR2       0.123500
     44 H12         -5.6330    -1.2800    -1.5940 ha         1 IR2       0.119000
     45 H13         -1.7090    -2.9110    -0.9030 h5         1 IR2       0.053800
     46 H14          2.8550    -3.5310    -1.2670 ha         1 IR2       0.136000
     47 H15          4.8580    -2.0940    -1.0470 ha         1 IR2       0.125000
     48 H16          2.3240     1.3010    -0.2400 ha         1 IR2       0.141000
     49 H17          4.2880     1.9340    -2.0710 ha         1 IR2       0.128000
     50 H18          6.2950     3.3960    -1.9230 h4         1 IR2       0.020100
     51 H19          9.0050     1.7110     1.3830 ha         1 IR2       0.132000
     52 H20          8.9140    -0.1810     2.9880 ha         1 IR2       0.117000
     53 H21          6.9480    -1.7100     2.9980 ha         1 IR2       0.115000
     54 H22          5.0930    -1.3590     1.4160 ha         1 IR2       0.121000
     55 O23         -0.2440     1.1820    -0.2810 o          1 IR2      -0.516000
@<TRIPOS>BOND
     1     1     2 1   
     2     1    28 1   
     3     1    33 1   
     4     1    34 1   
     5     2    32 1   
     6     2    35 1   
     7     2    36 1   
     8     3     4 1   
     9     3    32 1   
    10     3    37 1   
    11     3    38 1   
    12     4    28 1   
    13     4    39 1   
    14     4    40 1   
    15     5     6 ar  
    16     5    10 ar  
    17     5    28 1   
    18     6     7 ar  
    19     6    41 1   
    20     7     8 ar  
    21     7    42 1   
    22     8     9 ar  
    23     8    29 1   
    24     9    10 ar  
    25     9    43 1   
    26    10    44 1   
    27    11    29 1   
    28    11    30 2   
    29    11    45 1   
    30    12    13 ar  
    31    12    17 ar  
    32    12    30 1   
    33    13    14 ar  
    34    13    46 1   
    35    14    15 ar  
    36    14    47 1   
    37    15    16 ar  
    38    15    19 1   
    39    16    17 ar  
    40    16    48 1   
    41    17    18 1   
    42    18    29 1   
    43    18    55 2   
    44    19    20 ar  
    45    19    27 ar  
    46    20    21 ar  
    47    20    49 1   
    48    21    31 ar  
    49    21    50 1   
    50    22    23 ar  
    51    22    27 ar  
    52    22    31 ar  
    53    23    24 ar  
    54    23    51 1   
    55    24    25 ar  
    56    24    52 1   
    57    25    26 ar  
    58    25    53 1   
    59    26    27 ar  
    60    26    54 1   
@<TRIPOS>SUBSTRUCTURE
     1 IR2         1 TEMP              0 ****  ****    0 ROOT
