@<TRIPOS>MOLECULE
IR2
   55    60     1     0     0
SMALL
bcc


@<TRIPOS>ATOM
      1 C01         -7.3780     0.3010    -0.8770 c6         1 IR2       0.163300
      2 C02         -8.8320     0.3850    -0.4530 c6         1 IR2       0.122900
      3 C04         -8.3050     1.6150     1.4280 c6         1 IR2       0.122900
      4 C05         -6.8280     1.5890     1.0910 c6         1 IR2       0.163300
      5 C07         -5.1780     0.0600     0.1440 ca         1 IR2       0.181600
      6 C08         -4.3090     0.1080     1.2490 ca         1 IR2      -0.184000
      7 C09         -2.9900    -0.2850     1.1420 ca         1 IR2      -0.075000
      8 C10         -2.4910    -0.7420    -0.0700 ca         1 IR2      -0.027400
      9 C11         -3.3240    -0.7960    -1.1720 ca         1 IR2      -0.075000
     10 C12         -4.6480    -0.3990    -1.0710 ca         1 IR2      -0.184000
     11 C14         -0.8470    -2.4990    -0.1480 cc         1 IR2       0.515800
     12 C16          1.3830    -2.1500    -0.3470 ca         1 IR2       0.188400
     13 C17          2.6800    -2.6730    -0.4260 ca         1 IR2      -0.125000
     14 C18          3.7600    -1.8300    -0.5320 ca         1 IR2      -0.080000
     15 C19          3.5910    -0.4350    -0.5730 cp         1 IR2      -0.073000
     16 C20          2.3140     0.0870    -0.5080 ca         1 IR2      -0.043000
     17 C21          1.2090    -0.7600    -0.3890 ca         1 IR2      -0.205600
     18 C22         -0.1350    -0.2010    -0.3010 c          1 IR2       0.718100
     19 C24          4.7590     0.4590    -0.7190 cp         1 IR2       0.015000
     20 C25          4.8450     1.3130    -1.7870 ca         1 IR2      -0.241300
     21 C26          5.9790     2.1350    -1.9310 ca         1 IR2       0.418200
     22 C28          6.9220     1.3260    -0.0200 ca         1 IR2       0.395600
     23 C29          8.0010     1.3510     0.8930 ca         1 IR2      -0.165300
     24 C30          7.9810     0.5680     2.0140 ca         1 IR2      -0.121000
     25 C31          6.8780    -0.2680     2.2770 ca         1 IR2      -0.125000
     26 C32          5.8240    -0.3200     1.4060 ca         1 IR2      -0.111000
     27 C33          5.8220     0.4620     0.2270 ca         1 IR2      -0.134300
     28 N06         -6.5080     0.4220     0.2780 nh         1 IR2      -0.653000
     29 N13         -1.1300    -1.1630    -0.1730 n          1 IR2      -0.319500
     30 N15          0.3210    -3.0150    -0.2300 nd         1 IR2      -0.628100
     31 N27          6.9840     2.1430    -1.0990 nb         1 IR2      -0.658000
     32 O03         -9.1070     1.5600     0.2720 os         1 IR2      -0.394600
     33 H1          -7.2340    -0.6720    -1.3490 h1         1 IR2       0.050450
     34 H2          -7.1620     1.0710    -1.6330 h1         1 IR2       0.050450
     35 H3          -9.4670     0.3870    -1.3410 h1         1 IR2       0.054450
     36 H4          -9.0890    -0.5020     0.1420 h1         1 IR2       0.054450
     37 H5          -8.5400     0.7770     2.1000 h1         1 IR2       0.054450
     38 H6          -8.5410     2.5430     1.9510 h1         1 IR2       0.054450
     39 H7          -6.5460     2.5130     0.5670 h1         1 IR2       0.050450
     40 H8          -6.2760     1.5690     2.0280 h1         1 IR2       0.050450
     41 H9          -4.6650     0.4300     2.2170 ha         1 IR2       0.137000
     42 H10         -2.3500    -0.2510     2.0150 ha         1 IR2       0.141500
     43 H11         -2.9410    -1.1370    -2.1260 ha         1 IR2       0.141500
     44 H12         -5.2560    -0.4370    -1.9640 ha         1 IR2       0.137000
     45 H13         -1.7120    -3.1440    -0.0480 h5         1 IR2       0.053800
     46 H14          2.8140    -3.7460    -0.4030 ha         1 IR2       0.154000
     47 H15          4.7570    -2.2480    -0.5990 ha         1 IR2       0.143000
     48 H16          2.1660     1.1590    -0.5330 ha         1 IR2       0.159000
     49 H17          4.0660     1.3460    -2.5370 ha         1 IR2       0.146000
     50 H18          6.0450     2.7980    -2.7880 h4         1 IR2       0.020100
     51 H19          8.8340     2.0100     0.6820 ha         1 IR2       0.150000
     52 H20          8.8100     0.5950     2.7090 ha         1 IR2       0.135000
     53 H21          6.8630    -0.8680     3.1770 ha         1 IR2       0.133000
     54 H22          4.9790    -0.9580     1.6290 ha         1 IR2       0.139000
     55 O23         -0.4040     0.9840    -0.3320 o          1 IR2      -0.591500
@<TRIPOS>BOND
     1     1     2 1   
     2     1    28 1   
     3     1    33 1   
     4     1    34 1   
     5     2    32 1   
     6     2    35 1   
     7     2    36 1   
     8     3     4 1   
     9     3    32 1   
    10     3    37 1   
    11     3    38 1   
    12     4    28 1   
    13     4    39 1   
    14     4    40 1   
    15     5     6 ar  
    16     5    10 ar  
    17     5    28 1   
    18     6     7 ar  
    19     6    41 1   
    20     7     8 ar  
    21     7    42 1   
    22     8     9 ar  
    23     8    29 1   
    24     9    10 ar  
    25     9    43 1   
    26    10    44 1   
    27    11    29 1   
    28    11    30 2   
    29    11    45 1   
    30    12    13 ar  
    31    12    17 ar  
    32    12    30 1   
    33    13    14 ar  
    34    13    46 1   
    35    14    15 ar  
    36    14    47 1   
    37    15    16 ar  
    38    15    19 1   
    39    16    17 ar  
    40    16    48 1   
    41    17    18 1   
    42    18    29 1   
    43    18    55 2   
    44    19    20 ar  
    45    19    27 ar  
    46    20    21 ar  
    47    20    49 1   
    48    21    31 ar  
    49    21    50 1   
    50    22    23 ar  
    51    22    27 ar  
    52    22    31 ar  
    53    23    24 ar  
    54    23    51 1   
    55    24    25 ar  
    56    24    52 1   
    57    25    26 ar  
    58    25    53 1   
    59    26    27 ar  
    60    26    54 1   
@<TRIPOS>SUBSTRUCTURE
     1 IR2         1 TEMP              0 ****  ****    0 ROOT
