@<TRIPOS>MOLECULE
IR4
   43    46     1     0     0
SMALL
bcc


@<TRIPOS>ATOM
      1 O            2.1540    -4.2680     0.1410 o          1 IR4      -0.571100
      2 C1           2.8150    -3.2360     0.0950 c          1 IR4       0.616300
      3 C            4.3240    -3.2860     0.0550 c3         1 IR4      -0.186100
      4 C2           2.2230    -1.9240     0.0620 cc         1 IR4      -0.288300
      5 N1           0.8530    -1.6590     0.0700 na         1 IR4       0.080700
      6 C10          0.6420    -0.2960     0.0320 cc         1 IR4       0.058700
      7 C4           1.9120     0.3320    -0.0050 cd         1 IR4      -0.282800
      8 C5           2.1900     1.7600    -0.0510 ca         1 IR4       0.536100
      9 N            1.1530     2.6000    -0.1080 nb         1 IR4      -0.701000
     10 C9           1.3820     3.9060    -0.1510 ca         1 IR4       0.414200
     11 C8           2.6470     4.4670    -0.1420 ca         1 IR4      -0.265300
     12 C7           3.7330     3.6010    -0.0820 ca         1 IR4      -0.083000
     13 C6           3.5080     2.2400    -0.0350 ca         1 IR4      -0.253300
     14 C3           2.8570    -0.6940     0.0150 cd         1 IR4      -0.054000
     15 C14         -0.2010    -2.5170     0.1020 cc         1 IR4      -0.041300
     16 C13         -1.4740    -2.0540     0.1050 cd         1 IR4      -0.208000
     17 C12         -1.7550    -0.6550     0.0800 cd         1 IR4       0.194600
     18 C11         -0.6660     0.2010     0.0280 cc         1 IR4      -0.209000
     19 N2          -3.0500    -0.2020     0.1380 nh         1 IR4      -0.650000
     20 C18         -3.2870     1.2290     0.0650 c6         1 IR4       0.166300
     21 C17         -4.6890     1.5670     0.5380 c6         1 IR4       0.121900
     22 O1          -5.6740     0.8410    -0.1560 os         1 IR4      -0.393600
     23 C16         -5.4710    -0.5390     0.0330 c6         1 IR4       0.121900
     24 C15         -4.1150    -0.9830    -0.4790 c6         1 IR4       0.166300
     25 H1           4.6940    -2.9570    -0.9170 hc         1 IR4       0.060367
     26 H2           4.7720    -2.6390     0.8080 hc         1 IR4       0.060367
     27 H3           4.6630    -4.3060     0.2250 hc         1 IR4       0.060367
     28 H4           0.5040     4.5430    -0.1960 h4         1 IR4       0.011100
     29 H5           2.7760     5.5400    -0.1790 ha         1 IR4       0.140000
     30 H6           4.7450     3.9840    -0.0710 ha         1 IR4       0.133000
     31 H7           4.3450     1.5570     0.0150 ha         1 IR4       0.137000
     32 H8           3.9280    -0.5710    -0.0040 ha         1 IR4       0.148000
     33 H9           0.0260    -3.5680     0.1290 h4         1 IR4       0.194000
     34 H10         -2.2570    -2.7930     0.1450 ha         1 IR4       0.150000
     35 H11         -0.7630     1.2720    -0.0260 ha         1 IR4       0.181000
     36 H12         -2.5920     1.7540     0.7210 h1         1 IR4       0.053700
     37 H13         -3.1260     1.6030    -0.9560 h1         1 IR4       0.053700
     38 H14         -4.7610     1.3740     1.6170 h1         1 IR4       0.055200
     39 H15         -4.8750     2.6280     0.3730 h1         1 IR4       0.055200
     40 H16         -5.5620    -0.7980     1.0970 h1         1 IR4       0.055200
     41 H17         -6.2520    -1.0700    -0.5120 h1         1 IR4       0.055200
     42 H18         -4.0750    -0.8850    -1.5720 h1         1 IR4       0.053700
     43 H19         -4.0080    -2.0390    -0.2440 h1         1 IR4       0.053700
@<TRIPOS>BOND
     1     1     2 2   
     2     2     3 1   
     3     2     4 1   
     4     3    25 1   
     5     3    26 1   
     6     3    27 1   
     7     4     5 1   
     8     4    14 2   
     9     5     6 1   
    10     5    15 1   
    11     6     7 2   
    12     6    18 1   
    13     7     8 1   
    14     7    14 1   
    15     8     9 ar  
    16     8    13 ar  
    17     9    10 ar  
    18    10    11 ar  
    19    10    28 1   
    20    11    12 ar  
    21    11    29 1   
    22    12    13 ar  
    23    12    30 1   
    24    13    31 1   
    25    14    32 1   
    26    15    16 2   
    27    15    33 1   
    28    16    17 1   
    29    16    34 1   
    30    17    18 2   
    31    17    19 1   
    32    18    35 1   
    33    19    20 1   
    34    19    24 1   
    35    20    21 1   
    36    20    36 1   
    37    20    37 1   
    38    21    22 1   
    39    21    38 1   
    40    21    39 1   
    41    22    23 1   
    42    23    24 1   
    43    23    40 1   
    44    23    41 1   
    45    24    42 1   
    46    24    43 1   
@<TRIPOS>SUBSTRUCTURE
     1 IR4         1 TEMP              0 ****  ****    0 ROOT
