@<TRIPOS>MOLECULE
IR4
   43    46     1     0     0
SMALL
No Charge or Current Charge


@<TRIPOS>ATOM
      1 O            2.3130    -4.3590     0.1770 o          1 IR4      -0.571100
      2 C1           2.9090    -3.2920     0.1200 c          1 IR4       0.616300
      3 C            4.4370    -3.2870     0.0860 c3         1 IR4      -0.186100
      4 C2           2.2080    -1.9800     0.0830 cc         1 IR4      -0.288300
      5 N1           0.8590    -1.6330     0.0940 na         1 IR4       0.182100
      6 C10          0.6280    -0.2800     0.0330 cc         1 IR4       0.008000
      7 C4           1.8680     0.3190    -0.0060 cd         1 IR4      -0.282800
      8 C5           2.1920     1.7560    -0.1380 ca         1 IR4       0.470800
      9 N            1.3110     2.5350    -0.8080 nb         1 IR4      -0.701000
     10 C9           1.6270     3.8340    -1.0110 ca         1 IR4       0.348900
     11 C8           2.8360     4.4030    -0.5800 ca         1 IR4      -0.182000
     12 C7           3.7700     3.5950     0.0850 ca         1 IR4      -0.065000
     13 C6           3.4410     2.2470     0.2950 ca         1 IR4      -0.170000
     14 C3           2.8300    -0.7440     0.0110 cd         1 IR4      -0.104000
     15 C14         -0.1860    -2.5650     0.1590 cc         1 IR4      -0.074000
     16 C13         -1.4700    -2.0100     0.1600 cd         1 IR4      -0.190000
     17 C12         -1.7460    -0.5880     0.1000 cd         1 IR4       0.333000
     18 C11         -0.6780     0.2780     0.0470 cc         1 IR4      -0.191000
     19 N2          -3.0750    -0.1310     0.1180 nh         1 IR4      -0.788400
     20 C18         -3.4190     1.2650     0.5520 c6         1 IR4       0.166300
     21 C17         -4.8880     1.3780     1.0590 c6         1 IR4       0.145100
     22 O1          -5.8120     0.8300     0.0890 os         1 IR4      -0.440000
     23 C16         -5.5570    -0.5660    -0.1920 c6         1 IR4       0.145100
     24 C15         -4.1190    -0.7620    -0.7600 c6         1 IR4       0.166300
     25 H1           4.7730    -2.7430    -0.8040 hc         1 IR4       0.060367
     26 H2           4.8110    -2.6620     0.9050 hc         1 IR4       0.060367
     27 H3           4.8640    -4.2950     0.1240 hc         1 IR4       0.060367
     28 H4           0.8890     4.4350    -1.5400 h4         1 IR4       0.011100
     29 H5           3.0420     5.4520    -0.7690 ha         1 IR4       0.122000
     30 H6           4.7210     4.0000     0.4240 ha         1 IR4       0.115000
     31 H7           4.1420     1.5930     0.8040 ha         1 IR4       0.119000
     32 H8           3.9070    -0.5920    -0.0410 ha         1 IR4       0.198000
     33 H9           0.0390    -3.6190     0.2100 h4         1 IR4       0.176000
     34 H10         -2.3040    -2.6960     0.2320 ha         1 IR4       0.132000
     35 H11         -0.8140     1.3490     0.0060 ha         1 IR4       0.163000
     36 H12         -2.7500     1.5920     1.3610 h1         1 IR4       0.053700
     37 H13         -3.2780     1.9630    -0.2870 h1         1 IR4       0.053700
     38 H14         -4.9970     0.8340     2.0080 h1         1 IR4       0.055200
     39 H15         -5.1390     2.4320     1.2410 h1         1 IR4       0.055200
     40 H16         -5.6760    -1.1500     0.7320 h1         1 IR4       0.055200
     41 H17         -6.2970    -0.9280    -0.9200 h1         1 IR4       0.055200
     42 H18         -4.0760    -0.3130    -1.7630 h1         1 IR4       0.053700
     43 H19         -3.9430    -1.8380    -0.8910 h1         1 IR4       0.053700
@<TRIPOS>BOND
     1     1     2 2   
     2     2     3 1   
     3     2     4 1   
     4     3    25 1   
     5     3    26 1   
     6     3    27 1   
     7     4     5 1   
     8     4    14 2   
     9     5     6 1   
    10     5    15 1   
    11     6     7 2   
    12     6    18 1   
    13     7     8 1   
    14     7    14 1   
    15     8     9 ar  
    16     8    13 ar  
    17     9    10 ar  
    18    10    11 ar  
    19    10    28 1   
    20    11    12 ar  
    21    11    29 1   
    22    12    13 ar  
    23    12    30 1   
    24    13    31 1   
    25    14    32 1   
    26    15    16 2   
    27    15    33 1   
    28    16    17 1   
    29    16    34 1   
    30    17    18 2   
    31    17    19 1   
    32    18    35 1   
    33    19    20 1   
    34    19    24 1   
    35    20    21 1   
    36    20    36 1   
    37    20    37 1   
    38    21    22 1   
    39    21    38 1   
    40    21    39 1   
    41    22    23 1   
    42    23    24 1   
    43    23    40 1   
    44    23    41 1   
    45    24    42 1   
    46    24    43 1   
@<TRIPOS>SUBSTRUCTURE
     1 IR4         1 TEMP              0 ****  ****    0 ROOT
