@<TRIPOS>MOLECULE
IR5
   46    49     1     0     0
SMALL
bcc


@<TRIPOS>ATOM
      1 C01          2.9750     4.4530     0.1770 c3         1 IR5      -0.186100
      2 C02          1.6210     3.8570    -0.1190 c          1 IR5       0.615300
      3 O01          0.6720     4.5690    -0.4270 o          1 IR5      -0.565100
      4 C03          1.5200     2.4230    -0.0020 cc         1 IR5      -0.274300
      5 C04          2.5180     1.5050     0.3150 cd         1 IR5      -0.069000
      6 C05          1.9930     0.2180     0.3060 cd         1 IR5      -0.132200
      7 C06          2.7010    -1.0390     0.5950 ca         1 IR5      -0.017800
      8 C07          3.2040    -1.2550     1.8770 ca         1 IR5      -0.119000
      9 C08          3.8820    -2.4220     2.1940 ca         1 IR5      -0.130000
     10 C09          4.0570    -3.3930     1.2190 ca         1 IR5      -0.130000
     11 C10          3.5700    -3.1860    -0.0640 ca         1 IR5      -0.105000
     12 C11          2.8970    -2.0130    -0.3960 ca         1 IR5      -0.073300
     13 C12          2.4070    -1.7750    -1.8000 c3         1 IR5       0.182700
     14 O02          3.0340    -2.6660    -2.6880 oh         1 IR5      -0.598800
     15 C13          0.6330     0.3480    -0.0060 cc         1 IR5      -0.007300
     16 C14         -0.4050    -0.5940    -0.0970 cc         1 IR5      -0.145000
     17 C15         -1.6640    -0.1700    -0.4050 cd         1 IR5       0.133100
     18 O1          -2.6470    -1.0950    -0.5470 os         1 IR5      -0.247200
     19 C16         -3.8930    -0.8400    -0.0340 ca         1 IR5       0.111100
     20 C17         -4.0640    -0.2400     1.2080 ca         1 IR5      -0.156000
     21 C18         -5.3500    -0.0520     1.6940 ca         1 IR5      -0.106000
     22 C19         -6.4530    -0.4640     0.9580 ca         1 IR5      -0.142000
     23 C20         -6.2640    -1.0700    -0.2770 ca         1 IR5      -0.106000
     24 C21         -4.9840    -1.2560    -0.7820 ca         1 IR5      -0.156000
     25 C22         -1.9140     1.2080    -0.6240 cd         1 IR5      -0.208000
     26 C1          -0.9040     2.1060    -0.5100 cc         1 IR5      -0.045300
     27 N1           0.3560     1.6890    -0.1960 na         1 IR5       0.088700
     28 H1           3.2190     4.3330     1.2340 hc         1 IR5       0.062367
     29 H2           3.7660     3.9690    -0.3940 hc         1 IR5       0.062367
     30 H3           2.9730     5.5150    -0.0570 hc         1 IR5       0.062367
     31 H4           3.5470     1.7550     0.5230 ha         1 IR5       0.157000
     32 H5           3.0510    -0.4960     2.6350 ha         1 IR5       0.132000
     33 H6           4.2660    -2.5720     3.1950 ha         1 IR5       0.131000
     34 H7           4.5800    -4.3120     1.4530 ha         1 IR5       0.130000
     35 H8           3.7290    -3.9460    -0.8160 ha         1 IR5       0.148000
     36 H9           1.3160    -1.8950    -1.8310 h1         1 IR5       0.031700
     37 H10          2.6040    -0.7290    -2.0710 h1         1 IR5       0.031700
     38 H11          2.6100    -2.5750    -3.5460 ho         1 IR5       0.406000
     39 H12         -0.1930    -1.6390     0.0900 ha         1 IR5       0.172000
     40 H13         -3.2100     0.0710     1.7970 ha         1 IR5       0.147000
     41 H14         -5.4870     0.4170     2.6600 ha         1 IR5       0.135500
     42 H15         -7.4520    -0.3170     1.3450 ha         1 IR5       0.136000
     43 H16         -7.1170    -1.3940    -0.8600 ha         1 IR5       0.135500
     44 H17         -4.8310    -1.7250    -1.7460 ha         1 IR5       0.147000
     45 H18         -2.8990     1.5680    -0.8870 ha         1 IR5       0.165000
     46 H19         -1.0470     3.1610    -0.6630 h4         1 IR5       0.197000
@<TRIPOS>BOND
     1     1     2 1   
     2     1    28 1   
     3     1    29 1   
     4     1    30 1   
     5     2     3 2   
     6     2     4 1   
     7     4     5 2   
     8     4    27 1   
     9     5     6 1   
    10     5    31 1   
    11     6     7 1   
    12     6    15 2   
    13     7     8 ar  
    14     7    12 ar  
    15     8     9 ar  
    16     8    32 1   
    17     9    10 ar  
    18     9    33 1   
    19    10    11 ar  
    20    10    34 1   
    21    11    12 ar  
    22    11    35 1   
    23    12    13 1   
    24    13    14 1   
    25    13    36 1   
    26    13    37 1   
    27    14    38 1   
    28    15    16 1   
    29    15    27 1   
    30    16    17 2   
    31    16    39 1   
    32    17    18 1   
    33    17    25 1   
    34    18    19 1   
    35    19    20 ar  
    36    19    24 ar  
    37    20    21 ar  
    38    20    40 1   
    39    21    22 ar  
    40    21    41 1   
    41    22    23 ar  
    42    22    42 1   
    43    23    24 ar  
    44    23    43 1   
    45    24    44 1   
    46    25    26 2   
    47    25    45 1   
    48    26    27 1   
    49    26    46 1   
@<TRIPOS>SUBSTRUCTURE
     1 IR5         1 TEMP              0 ****  ****    0 ROOT
