@<TRIPOS>MOLECULE
IR5
   46    49     1     0     0
SMALL
No Charge or Current Charge


@<TRIPOS>ATOM
      1 C01          3.3260     4.4680     0.5670 c3         1 IR5      -0.186100
      2 C02          1.9620     4.0810    -0.0040 c          1 IR5       0.615300
      3 O01          1.2230     4.9540    -0.4390 o          1 IR5      -0.565100
      4 C03          1.5920     2.6410    -0.0020 cc         1 IR5      -0.274300
      5 C04          2.3910     1.6100     0.4720 cd         1 IR5      -0.119000
      6 C05          1.7420     0.3440     0.3290 cd         1 IR5      -0.132200
      7 C06          2.3730    -0.9570     0.6370 ca         1 IR5      -0.017800
      8 C07          3.0770    -1.0510     1.8560 ca         1 IR5      -0.101000
      9 C08          3.6620    -2.2590     2.2660 ca         1 IR5      -0.112000
     10 C09          3.5650    -3.3920     1.4490 ca         1 IR5      -0.112000
     11 C10          2.9120    -3.3050     0.2100 ca         1 IR5      -0.087000
     12 C11          2.3310    -2.0920    -0.2250 ca         1 IR5      -0.073300
     13 C12          1.7740    -2.0310    -1.6540 c3         1 IR5       0.205900
     14 O02          2.6760    -2.6390    -2.5910 oh         1 IR5      -0.661000
     15 C13          0.5210     0.5970    -0.2480 cc         1 IR5      -0.058000
     16 C14         -0.5670    -0.2730    -0.5270 cc         1 IR5      -0.127000
     17 C15         -1.6830     0.3100    -1.0670 cd         1 IR5       0.133100
     18 O1          -2.7690    -0.4650    -1.3510 os         1 IR5      -0.247200
     19 C16         -3.7660    -0.7130    -0.4320 ca         1 IR5       0.111100
     20 C17         -3.7430    -0.1610     0.8680 ca         1 IR5      -0.138000
     21 C18         -4.7830    -0.4450     1.7710 ca         1 IR5      -0.088000
     22 C19         -5.8460    -1.2780     1.3810 ca         1 IR5      -0.124000
     23 C20         -5.8720    -1.8280     0.0880 ca         1 IR5      -0.088000
     24 C21         -4.8320    -1.5450    -0.8150 ca         1 IR5      -0.138000
     25 C22         -1.7300     1.7320    -1.3050 cd         1 IR5      -0.190000
     26 C1          -0.6690     2.5900    -0.9930 cc         1 IR5      -0.078000
     27 N1           0.4580     1.9600    -0.4380 na         1 IR5       0.190100
     28 H1           3.4090     4.0820     1.5890 hc         1 IR5       0.062367
     29 H2           4.1060     3.9120     0.0350 hc         1 IR5       0.062367
     30 H3           3.5080     5.5480     0.5300 hc         1 IR5       0.062367
     31 H4           3.3930     1.7290     0.8780 ha         1 IR5       0.207000
     32 H5           3.1370    -0.1880     2.5150 ha         1 IR5       0.114000
     33 H6           4.1810    -2.3170     3.2200 ha         1 IR5       0.113000
     34 H7           4.0150    -4.3310     1.7630 ha         1 IR5       0.112000
     35 H8           2.8810    -4.1830    -0.4310 ha         1 IR5       0.130000
     36 H9           0.8050    -2.5460    -1.6820 h1         1 IR5       0.031700
     37 H10          1.6100    -0.9890    -1.9530 h1         1 IR5       0.031700
     38 H11          2.2660    -2.5480    -3.4790 ho         1 IR5       0.445000
     39 H12         -0.5250    -1.3300    -0.2950 ha         1 IR5       0.154000
     40 H13         -2.9290     0.4850     1.1870 ha         1 IR5       0.129000
     41 H14         -4.7650    -0.0200     2.7720 ha         1 IR5       0.117500
     42 H15         -6.6500    -1.4960     2.0800 ha         1 IR5       0.118000
     43 H16         -6.6950    -2.4720    -0.2140 ha         1 IR5       0.117500
     44 H17         -4.8510    -1.9700    -1.8160 ha         1 IR5       0.129000
     45 H18         -2.6340     2.1550    -1.7300 ha         1 IR5       0.147000
     46 H19         -0.6650     3.6600    -1.1410 h4         1 IR5       0.179000
@<TRIPOS>BOND
     1     1     2 1   
     2     1    28 1   
     3     1    29 1   
     4     1    30 1   
     5     2     3 2   
     6     2     4 1   
     7     4     5 2   
     8     4    27 1   
     9     5     6 1   
    10     5    31 1   
    11     6     7 1   
    12     6    15 2   
    13     7     8 ar  
    14     7    12 ar  
    15     8     9 ar  
    16     8    32 1   
    17     9    10 ar  
    18     9    33 1   
    19    10    11 ar  
    20    10    34 1   
    21    11    12 ar  
    22    11    35 1   
    23    12    13 1   
    24    13    14 1   
    25    13    36 1   
    26    13    37 1   
    27    14    38 1   
    28    15    16 1   
    29    15    27 1   
    30    16    17 2   
    31    16    39 1   
    32    17    18 1   
    33    17    25 1   
    34    18    19 1   
    35    19    20 ar  
    36    19    24 ar  
    37    20    21 ar  
    38    20    40 1   
    39    21    22 ar  
    40    21    41 1   
    41    22    23 ar  
    42    22    42 1   
    43    23    24 ar  
    44    23    43 1   
    45    24    44 1   
    46    25    26 2   
    47    25    45 1   
    48    26    27 1   
    49    26    46 1   
@<TRIPOS>SUBSTRUCTURE
     1 IR5         1 TEMP              0 ****  ****    0 ROOT
