@<TRIPOS>MOLECULE
IR6
   48    51     1     0     0
SMALL
abcg2


@<TRIPOS>ATOM
      1 C01          2.3110     4.4330     0.7210 c3         1 IR6      -0.188100
      2 C02          0.9600     3.8300     0.4260 c          1 IR6       0.617300
      3 O01         -0.0100     4.5370     0.1830 o          1 IR6      -0.566100
      4 C03          0.8910     2.3890     0.4490 cc         1 IR6      -0.276300
      5 C04          1.9090     1.4830     0.7180 cd         1 IR6      -0.082000
      6 C05          1.4110     0.1860     0.6400 cd         1 IR6      -0.200200
      7 C06          2.0790    -1.0910     0.9300 ca         1 IR6       0.091200
      8 C07          1.6020    -1.8510     1.9990 ca         1 IR6      -0.127000
      9 C08          2.1600    -3.0750     2.3290 ca         1 IR6      -0.059000
     10 C09          3.2200    -3.5770     1.5900 ca         1 IR6      -0.129000
     11 C10          3.7070    -2.8530     0.5140 ca         1 IR6      -0.024000
     12 C11          3.1420    -1.6250     0.1890 ca         1 IR6      -0.246500
     13 S            3.8380    -0.7810    -1.2220 sy         1 IR6       1.057500
     14 C12          2.4940    -0.6310    -2.3770 c3         1 IR6      -0.331100
     15 O02          4.2810     0.5520    -0.8240 o          1 IR6      -0.532500
     16 O03          4.8330    -1.6710    -1.8200 o          1 IR6      -0.532500
     17 C13          0.0490     0.3000     0.3180 cc         1 IR6      -0.042000
     18 C14         -0.9500    -0.6610     0.1020 cc         1 IR6      -0.148000
     19 C15         -2.2110    -0.2490    -0.2240 cd         1 IR6       0.151100
     20 O1          -3.1450    -1.1930    -0.4880 os         1 IR6      -0.245200
     21 C16         -4.4600    -0.9540    -0.1760 ca         1 IR6       0.102100
     22 C17         -4.8320    -0.4960     1.0820 ca         1 IR6      -0.131000
     23 C18         -6.1780    -0.3170     1.3640 ca         1 IR6      -0.091000
     24 C19         -7.1440    -0.6000     0.4060 ca         1 IR6      -0.118000
     25 C20         -6.7560    -1.0650    -0.8430 ca         1 IR6      -0.091000
     26 C21         -5.4120    -1.2390    -1.1430 ca         1 IR6      -0.131000
     27 C22         -2.4950     1.1340    -0.3420 cd         1 IR6      -0.199000
     28 C1          -1.5130     2.0460    -0.1330 cc         1 IR6      -0.069000
     29 N1          -0.2550     1.6410     0.1970 na         1 IR6       0.188100
     30 H1           2.2490     5.5180     0.6810 hc         1 IR6       0.066700
     31 H2           2.6670     4.1390     1.7100 hc         1 IR6       0.066700
     32 H3           3.0550     4.0990    -0.0020 hc         1 IR6       0.066700
     33 H4           2.9170     1.7540     0.9790 ha         1 IR6       0.232000
     34 H5           0.7820    -1.4590     2.5870 ha         1 IR6       0.121000
     35 H6           1.7680    -3.6340     3.1680 ha         1 IR6       0.118000
     36 H7           3.6640    -4.5300     1.8410 ha         1 IR6       0.121000
     37 H8           4.5210    -3.2530    -0.0740 ha         1 IR6       0.146000
     38 H9           1.6960    -0.0290    -1.9510 h1         1 IR6       0.104367
     39 H10          2.8960    -0.1390    -3.2620 h1         1 IR6       0.104367
     40 H11          2.1300    -1.6240    -2.6310 h1         1 IR6       0.104367
     41 H12         -0.7080    -1.7120     0.1920 ha         1 IR6       0.152000
     42 H13         -4.0840    -0.2890     1.8380 ha         1 IR6       0.129000
     43 H14         -6.4720     0.0410     2.3420 ha         1 IR6       0.119000
     44 H15         -8.1920    -0.4620     0.6350 ha         1 IR6       0.119000
     45 H16         -7.5020    -1.2900    -1.5950 ha         1 IR6       0.119000
     46 H17         -5.1030    -1.5970    -2.1160 ha         1 IR6       0.129000
     47 H18         -3.4780     1.4890    -0.6150 ha         1 IR6       0.149000
     48 H19         -1.6770     3.1060    -0.2240 h4         1 IR6       0.182000
@<TRIPOS>BOND
     1     1     2 1   
     2     1    30 1   
     3     1    31 1   
     4     1    32 1   
     5     2     3 2   
     6     2     4 1   
     7     4     5 2   
     8     4    29 1   
     9     5     6 1   
    10     5    33 1   
    11     6     7 1   
    12     6    17 2   
    13     7     8 ar  
    14     7    12 ar  
    15     8     9 ar  
    16     8    34 1   
    17     9    10 ar  
    18     9    35 1   
    19    10    11 ar  
    20    10    36 1   
    21    11    12 ar  
    22    11    37 1   
    23    12    13 1   
    24    13    14 1   
    25    13    15 2   
    26    13    16 2   
    27    14    38 1   
    28    14    39 1   
    29    14    40 1   
    30    17    18 1   
    31    17    29 1   
    32    18    19 2   
    33    18    41 1   
    34    19    20 1   
    35    19    27 1   
    36    20    21 1   
    37    21    22 ar  
    38    21    26 ar  
    39    22    23 ar  
    40    22    42 1   
    41    23    24 ar  
    42    23    43 1   
    43    24    25 ar  
    44    24    44 1   
    45    25    26 ar  
    46    25    45 1   
    47    26    46 1   
    48    27    28 2   
    49    27    47 1   
    50    28    29 1   
    51    28    48 1   
@<TRIPOS>SUBSTRUCTURE
     1 IR6         1 TEMP              0 ****  ****    0 ROOT
