@<TRIPOS>MOLECULE
IR6
   48    51     1     0     0
SMALL
No Charge or Current Charge


@<TRIPOS>ATOM
      1 C01          2.6610     4.3640     0.8530 c3         1 IR6      -0.188100
      2 C02          1.2900     4.0220     0.2690 c          1 IR6       0.617300
      3 O01          0.5470     4.9260    -0.0890 o          1 IR6      -0.566100
      4 C03          0.9210     2.5870     0.1570 cc         1 IR6      -0.276300
      5 C04          1.7170     1.5240     0.5580 cd         1 IR6      -0.082000
      6 C05          1.0770     0.2690     0.3010 cd         1 IR6      -0.200200
      7 C06          1.5460    -1.0580     0.7480 ca         1 IR6       0.091200
      8 C07          0.6580    -1.8230     1.5340 ca         1 IR6      -0.127000
      9 C08          1.0240    -3.0790     2.0380 ca         1 IR6      -0.059000
     10 C09          2.2930    -3.5960     1.7550 ca         1 IR6      -0.129000
     11 C10          3.1860    -2.8650     0.9590 ca         1 IR6      -0.024000
     12 C11          2.8310    -1.5950     0.4420 ca         1 IR6      -0.246500
     13 S            4.0060    -0.8150    -0.7090 sy         1 IR6       1.057500
     14 C12          3.0440    -0.4240    -2.1750 c3         1 IR6      -0.331100
     15 O02          4.4510     0.4660    -0.1470 o          1 IR6      -0.532500
     16 O03          4.9970    -1.8200    -1.1170 o          1 IR6      -0.532500
     17 C13         -0.1750     0.5740    -0.1740 cc         1 IR6      -0.042000
     18 C14         -1.2480    -0.2780    -0.5460 cc         1 IR6      -0.148000
     19 C15         -2.3790     0.3430    -1.0040 cd         1 IR6       0.151100
     20 O1          -3.4590    -0.4120    -1.3550 os         1 IR6      -0.245200
     21 C16         -4.4180    -0.8060    -0.4460 ca         1 IR6       0.102100
     22 C17         -4.3660    -0.4210     0.9130 ca         1 IR6      -0.131000
     23 C18         -5.3670    -0.8500     1.8030 ca         1 IR6      -0.091000
     24 C19         -6.4200    -1.6600     1.3430 ca         1 IR6      -0.118000
     25 C20         -6.4730    -2.0440    -0.0080 ca         1 IR6      -0.091000
     26 C21         -5.4730    -1.6160    -0.8990 ca         1 IR6      -0.131000
     27 C22         -2.4480     1.7820    -1.0870 cd         1 IR6      -0.199000
     28 C1          -1.3810     2.6160    -0.7330 cc         1 IR6      -0.069000
     29 N1          -0.2230     1.9430    -0.3050 na         1 IR6       0.188100
     30 H1           2.8510     5.4430     0.8760 hc         1 IR6       0.066700
     31 H2           2.7420     3.9220     1.8520 hc         1 IR6       0.066700
     32 H3           3.4330     3.8300     0.2890 hc         1 IR6       0.066700
     33 H4           2.6800     1.6250     1.0530 ha         1 IR6       0.232000
     34 H5          -0.3190    -1.4240     1.7910 ha         1 IR6       0.121000
     35 H6           0.3280    -3.6440     2.6530 ha         1 IR6       0.118000
     36 H7           2.5820    -4.5700     2.1440 ha         1 IR6       0.121000
     37 H8           4.1570    -3.3050     0.7370 ha         1 IR6       0.146000
     38 H9           2.3240     0.3620    -1.9340 h1         1 IR6       0.104367
     39 H10          3.7370    -0.0750    -2.9460 h1         1 IR6       0.104367
     40 H11          2.5330    -1.3350    -2.4990 h1         1 IR6       0.104367
     41 H12         -1.1710    -1.3570    -0.4740 ha         1 IR6       0.152000
     42 H13         -3.5620     0.2060     1.2870 ha         1 IR6       0.129000
     43 H14         -5.3280    -0.5530     2.8490 ha         1 IR6       0.119000
     44 H15         -7.1930    -1.9910     2.0330 ha         1 IR6       0.119000
     45 H16         -7.2880    -2.6710    -0.3640 ha         1 IR6       0.119000
     46 H17         -5.5140    -1.9130    -1.9440 ha         1 IR6       0.129000
     47 H18         -3.3700     2.2350    -1.4380 ha         1 IR6       0.149000
     48 H19         -1.3880     3.6940    -0.7750 h4         1 IR6       0.182000
@<TRIPOS>BOND
     1     1     2 1   
     2     1    30 1   
     3     1    31 1   
     4     1    32 1   
     5     2     3 2   
     6     2     4 1   
     7     4     5 2   
     8     4    29 1   
     9     5     6 1   
    10     5    33 1   
    11     6     7 1   
    12     6    17 2   
    13     7     8 ar  
    14     7    12 ar  
    15     8     9 ar  
    16     8    34 1   
    17     9    10 ar  
    18     9    35 1   
    19    10    11 ar  
    20    10    36 1   
    21    11    12 ar  
    22    11    37 1   
    23    12    13 1   
    24    13    14 1   
    25    13    15 2   
    26    13    16 2   
    27    14    38 1   
    28    14    39 1   
    29    14    40 1   
    30    17    18 1   
    31    17    29 1   
    32    18    19 2   
    33    18    41 1   
    34    19    20 1   
    35    19    27 1   
    36    20    21 1   
    37    21    22 ar  
    38    21    26 ar  
    39    22    23 ar  
    40    22    42 1   
    41    23    24 ar  
    42    23    43 1   
    43    24    25 ar  
    44    24    44 1   
    45    25    26 ar  
    46    25    45 1   
    47    26    46 1   
    48    27    28 2   
    49    27    47 1   
    50    28    29 1   
    51    28    48 1   
@<TRIPOS>SUBSTRUCTURE
     1 IR6         1 TEMP              0 ****  ****    0 ROOT
