@<TRIPOS>MOLECULE
IR7
   51    53     1     0     0
SMALL
No Charge or Current Charge


@<TRIPOS>ATOM
      1 C10         51.2260   106.5910    74.2800 c6         1 IR7       0.117000
      2 C12         51.1660   105.2810    75.1120 c6         1 IR7       0.143800
      3 O26         57.2320   115.9380    70.5090 o          1 IR7      -0.707000
      4 C25         56.2310   115.6320    69.8710 c          1 IR7       0.731000
      5 C24         55.4500   114.3380    70.2420 c3         1 IR7      -0.002400
      6 C22         55.6330   110.6280    73.4570 ca         1 IR7      -0.023500
      7 C21         56.1350   111.8230    72.9190 ca         1 IR7      -0.213500
      8 C20         55.4950   112.4450    71.8390 ca         1 IR7       0.211100
      9 C19         54.3360   111.8580    71.2930 ca         1 IR7      -0.213500
     10 C18         53.8290   110.6610    71.8260 ca         1 IR7      -0.023500
     11 C16         54.4730   110.0300    72.9160 ca         1 IR7      -0.261600
     12 C15         53.9440   108.7380    73.5100 c          1 IR7       0.581700
     13 C02         49.6030   101.2690    76.3480 c6         1 IR7       0.145800
     14 C03         49.8060   102.6330    75.6500 c6         1 IR7      -0.115400
     15 C04         52.7720   104.1830    73.6460 c6         1 IR7       0.080800
     16 C05         51.2350   102.7750    75.0390 c6         1 IR7       0.190500
     17 C06         51.5080   101.5300    74.1370 c6         1 IR7      -0.115400
     18 C07         53.1540   105.5540    73.0100 c          1 IR7       0.573000
     19 C09         51.2540   100.2020    74.8850 c6         1 IR7       0.145800
     20 N01         51.4050   104.0640    74.2770 n3         1 IR7      -0.714600
     21 N08         52.3950   106.6900    73.3710 n          1 IR7      -0.385800
     22 N11         49.8790   100.1500    75.4230 n7         1 IR7      -0.842400
     23 O13         54.0890   105.6410    72.2210 o          1 IR7      -0.567000
     24 O17         54.4570   108.2680    74.5220 o          1 IR7      -0.551100
     25 O27         55.8040   116.3030    68.9400 o          1 IR7      -0.707000
     26 H1          51.2200   107.4500    74.9650 h1         1 IR7       0.048200
     27 H2          50.3140   106.6570    73.6690 h1         1 IR7       0.048200
     28 H3          50.1780   105.2620    75.5890 h1         1 IR7       0.045200
     29 H4          51.9130   105.3390    75.9180 h1         1 IR7       0.045200
     30 H6          54.4200   114.6300    70.4820 h1         1 IR7       0.021200
     31 H7          55.4260   113.6990    69.3500 h1         1 IR7       0.021200
     32 H8          56.1530   110.1690    74.2960 ha         1 IR7       0.105500
     33 H9          57.0290   112.2730    73.3440 ha         1 IR7       0.129500
     34 H10         53.8170   112.3160    70.4570 ha         1 IR7       0.129500
     35 H11         52.9290   110.2410    71.3810 ha         1 IR7       0.105500
     36 H12         48.5690   101.1960    76.7190 h1         1 IR7       0.050950
     37 H13         50.2710   101.2000    77.2200 h1         1 IR7       0.050950
     38 H14         49.6210   103.4100    76.4010 hc         1 IR7       0.051700
     39 H15         49.0490   102.7640    74.8640 hc         1 IR7       0.051700
     40 H16         52.8920   103.4500    72.8370 h1         1 IR7       0.062200
     41 H17         53.5520   103.9830    74.3950 h1         1 IR7       0.062200
     42 H18         51.9570   102.7490    75.8690 h1         1 IR7       0.024700
     43 H19         52.5490   101.5170    73.7920 hc         1 IR7       0.051700
     44 H20         50.8770   101.5750    73.2380 hc         1 IR7       0.051700
     45 H21         51.4140    99.3570    74.1980 h1         1 IR7       0.050950
     46 H22         51.9770   100.1000    75.7080 h1         1 IR7       0.050950
     47 H23         51.8810   108.7040    72.9150 h1         1 IR7       0.076700
     48 H24         52.9800   107.9410    71.7600 h1         1 IR7       0.076700
     49 H26         49.2210   100.2120    74.6360 hn         1 IR7       0.402000
     50 C14         52.7460   108.0350    72.8270 c3         1 IR7      -0.007000
     51 O23         56.0360   113.6190    71.3540 os         1 IR7      -0.283100
@<TRIPOS>BOND
     1     1     2 1   
     2     1    21 1   
     3     1    26 1   
     4     1    27 1   
     5     2    20 1   
     6     2    28 1   
     7     2    29 1   
     8     3     4 1   
     9     4     5 1   
    10     4    25 1   
    11     5    30 1   
    12     5    31 1   
    13     5    51 1   
    14     6     7 ar  
    15     6    11 ar  
    16     6    32 1   
    17     7     8 ar  
    18     7    33 1   
    19     8     9 ar  
    20     8    51 1   
    21     9    10 ar  
    22     9    34 1   
    23    10    11 ar  
    24    10    35 1   
    25    11    12 1   
    26    12    24 2   
    27    12    50 1   
    28    13    14 1   
    29    13    22 1   
    30    13    36 1   
    31    13    37 1   
    32    14    16 1   
    33    14    38 1   
    34    14    39 1   
    35    15    18 1   
    36    15    20 1   
    37    15    40 1   
    38    15    41 1   
    39    16    17 1   
    40    16    20 1   
    41    16    42 1   
    42    17    19 1   
    43    17    43 1   
    44    17    44 1   
    45    18    21 1   
    46    18    23 2   
    47    19    22 1   
    48    19    45 1   
    49    19    46 1   
    50    21    50 1   
    51    22    49 1   
    52    47    50 1   
    53    48    50 1   
@<TRIPOS>SUBSTRUCTURE
     1 IR7         1 TEMP              0 ****  ****    0 ROOT
