@<TRIPOS>MOLECULE
IR7
   51    53     1     0     0
SMALL
abcg2


@<TRIPOS>ATOM
      1 C10         51.4870   106.6040    74.3000 c6         1 IR7       0.117000
      2 C12         51.5710   105.3570    75.1450 c6         1 IR7       0.143800
      3 O26         56.8170   115.9190    71.0410 o          1 IR7      -0.707000
      4 C25         55.9810   115.5360    70.2110 c          1 IR7       0.731000
      5 C24         55.2840   114.1820    70.4450 c3         1 IR7      -0.002400
      6 C22         55.4960   110.4810    73.4670 ca         1 IR7      -0.023500
      7 C21         55.9420   111.7050    73.0280 ca         1 IR7      -0.213500
      8 C20         55.3410   112.3260    71.9230 ca         1 IR7       0.211100
      9 C19         54.2850   111.6800    71.2750 ca         1 IR7      -0.213500
     10 C18         53.8460   110.4480    71.7320 ca         1 IR7      -0.023500
     11 C16         54.4360   109.8240    72.8290 ca         1 IR7      -0.261600
     12 C15         53.9850   108.5120    73.3320 c          1 IR7       0.581700
     13 C02         49.5150   101.6100    76.2370 c6         1 IR7       0.145800
     14 C03         49.8180   102.9040    75.4850 c6         1 IR7      -0.115400
     15 C04         52.7710   104.1660    73.5300 c6         1 IR7       0.080800
     16 C05         51.2770   102.9550    75.0280 c6         1 IR7       0.190500
     17 C06         51.5650   101.6950    74.2110 c6         1 IR7      -0.115400
     18 C07         53.1360   105.4780    72.8630 c          1 IR7       0.573000
     19 C09         51.2000   100.4410    75.0070 c6         1 IR7       0.145800
     20 N01         51.5380   104.1910    74.2850 n3         1 IR7      -0.714600
     21 N08         52.4680   106.5850    73.2300 n          1 IR7      -0.385800
     22 N11         49.8300   100.4060    75.4860 n7         1 IR7      -0.842400
     23 O13         54.0240   105.4950    72.0200 o          1 IR7      -0.567000
     24 O17         54.5190   107.9730    74.2780 o          1 IR7      -0.551100
     25 O27         55.5930   116.1110    69.1760 o          1 IR7      -0.707000
     26 H1          51.6640   107.4780    74.9300 h1         1 IR7       0.048200
     27 H2          50.4830   106.7040    73.8770 h1         1 IR7       0.048200
     28 H3          50.7220   105.3600    75.8270 h1         1 IR7       0.045200
     29 H4          52.4830   105.3790    75.7650 h1         1 IR7       0.045200
     30 H6          54.2110   114.3570    70.5950 h1         1 IR7       0.021200
     31 H7          55.3860   113.5620    69.5470 h1         1 IR7       0.021200
     32 H8          55.9760   110.0220    74.3220 ha         1 IR7       0.105500
     33 H9          56.7610   112.2020    73.5320 ha         1 IR7       0.129500
     34 H10         53.7940   112.1210    70.4190 ha         1 IR7       0.129500
     35 H11         53.0250   109.9820    71.2020 ha         1 IR7       0.105500
     36 H12         48.4620   101.5840    76.5220 h1         1 IR7       0.050950
     37 H13         50.0900   101.5900    77.1690 h1         1 IR7       0.050950
     38 H14         49.5670   103.7500    76.1280 hc         1 IR7       0.051700
     39 H15         49.1760   102.9730    74.6010 hc         1 IR7       0.051700
     40 H16         52.7160   103.4320    72.7260 h1         1 IR7       0.062200
     41 H17         53.6430   103.8880    74.1490 h1         1 IR7       0.062200
     42 H18         51.9270   102.9170    75.9240 h1         1 IR7       0.024700
     43 H19         52.6200   101.6280    73.9370 hc         1 IR7       0.051700
     44 H20         50.9890   101.7220    73.2800 hc         1 IR7       0.051700
     45 H21         51.3850    99.5530    74.3980 h1         1 IR7       0.050950
     46 H22         51.8640   100.3670    75.8750 h1         1 IR7       0.050950
     47 H23         51.9380   108.5020    72.6740 h1         1 IR7       0.076700
     48 H24         53.0440   107.7120    71.5720 h1         1 IR7       0.076700
     49 H26         49.2080   100.3520    74.6870 hn         1 IR7       0.402000
     50 C14         52.8090   107.8430    72.6300 c3         1 IR7      -0.007000
     51 O23         55.8340   113.5110    71.5690 os         1 IR7      -0.283100
@<TRIPOS>BOND
     1     1     2 1   
     2     1    21 1   
     3     1    26 1   
     4     1    27 1   
     5     2    20 1   
     6     2    28 1   
     7     2    29 1   
     8     3     4 1   
     9     4     5 1   
    10     4    25 1   
    11     5    30 1   
    12     5    31 1   
    13     5    51 1   
    14     6     7 ar  
    15     6    11 ar  
    16     6    32 1   
    17     7     8 ar  
    18     7    33 1   
    19     8     9 ar  
    20     8    51 1   
    21     9    10 ar  
    22     9    34 1   
    23    10    11 ar  
    24    10    35 1   
    25    11    12 1   
    26    12    24 2   
    27    12    50 1   
    28    13    14 1   
    29    13    22 1   
    30    13    36 1   
    31    13    37 1   
    32    14    16 1   
    33    14    38 1   
    34    14    39 1   
    35    15    18 1   
    36    15    20 1   
    37    15    40 1   
    38    15    41 1   
    39    16    17 1   
    40    16    20 1   
    41    16    42 1   
    42    17    19 1   
    43    17    43 1   
    44    17    44 1   
    45    18    21 1   
    46    18    23 2   
    47    19    22 1   
    48    19    45 1   
    49    19    46 1   
    50    21    50 1   
    51    22    49 1   
    52    47    50 1   
    53    48    50 1   
@<TRIPOS>SUBSTRUCTURE
     1 IR7         1 TEMP              0 ****  ****    0 ROOT
