@<TRIPOS>MOLECULE
IRA
   21    21     1     0     0
SMALL
abcg2


@<TRIPOS>ATOM
      1 C1           1.2120     1.2480    -0.1330 ca         1 IRA       0.158100
      2 C2           0.1750     2.0830     0.2660 ca         1 IRA      -0.213000
      3 C3          -1.1340     1.6130     0.3020 ca         1 IRA      -0.083000
      4 C4          -1.3900     0.3080    -0.0670 ca         1 IRA      -0.045900
      5 C5          -0.3570    -0.5310    -0.4740 ca         1 IRA      -0.072000
      6 O1           2.5010     1.6290    -0.1950 os         1 IRA      -0.303100
      7 C6           2.8420     2.9470     0.1820 c3         1 IRA       0.152900
      8 BR1         -3.1640    -0.3510    -0.0270 br         1 IRA      -0.159100
      9 C7           0.9510    -0.0790    -0.5130 ca         1 IRA      -0.011300
     10 C8           3.0150    -1.3960     0.2060 c          1 IRA       0.731000
     11 O2           2.5640    -1.3320     1.3630 o          1 IRA      -0.727500
     12 C9           2.0700    -0.9690    -0.9450 c3         1 IRA      -0.182100
     13 O3           4.1390    -1.8070    -0.1420 o          1 IRA      -0.727500
     14 H1           0.3560     3.1080     0.5570 ha         1 IRA       0.101000
     15 H2          -1.9280     2.2780     0.6150 ha         1 IRA       0.104000
     16 H3          -0.5640    -1.5520    -0.7680 ha         1 IRA       0.123000
     17 H4           2.3670     3.6930    -0.4600 h1         1 IRA       0.028700
     18 H5           2.5760     3.1560     1.2220 h1         1 IRA       0.028700
     19 H6           3.9210     3.0290     0.0740 h1         1 IRA       0.028700
     20 H7           1.6520    -1.8830    -1.3810 hc         1 IRA       0.035200
     21 H8           2.6560    -0.5000    -1.7390 hc         1 IRA       0.035200
@<TRIPOS>BOND
     1     1     2 ar  
     2     1     6 1   
     3     1     9 ar  
     4     2     3 ar  
     5     2    14 1   
     6     3     4 ar  
     7     3    15 1   
     8     4     5 ar  
     9     4     8 1   
    10     5     9 ar  
    11     5    16 1   
    12     6     7 1   
    13     7    17 1   
    14     7    18 1   
    15     7    19 1   
    16     9    12 1   
    17    10    11 1   
    18    10    12 1   
    19    10    13 1   
    20    12    20 1   
    21    12    21 1   
@<TRIPOS>SUBSTRUCTURE
     1 IRA         1 TEMP              0 ****  ****    0 ROOT
