@<TRIPOS>MOLECULE
IRA
   21    21     1     0     0
SMALL
No Charge or Current Charge


@<TRIPOS>ATOM
      1 C1           1.2840     1.2990    -0.2010 ca         1 IRA       0.158100
      2 C2           0.2320     2.1480     0.2200 ca         1 IRA      -0.213000
      3 C3          -1.0710     1.6450     0.3650 ca         1 IRA      -0.083000
      4 C4          -1.3340     0.2950     0.0920 ca         1 IRA      -0.045900
      5 C5          -0.2990    -0.5550    -0.3270 ca         1 IRA      -0.072000
      6 O1           2.5750     1.7740    -0.3530 os         1 IRA      -0.303100
      7 C6           2.9350     3.1390    -0.0860 c3         1 IRA       0.152900
      8 Br1         -3.1070    -0.3890     0.2930 br         1 IRA      -0.159100
      9 C7           1.0150    -0.0670    -0.4790 ca         1 IRA      -0.011300
     10 C8           2.7010    -1.7560     0.2880 c          1 IRA       0.731000
     11 O2           2.1320    -2.7610     0.6880 o          1 IRA      -0.727500
     12 C9           2.1130    -1.0360    -0.9350 c3         1 IRA      -0.182100
     13 O3           3.6370    -1.2340     0.8740 o          1 IRA      -0.727500
     14 H1           0.4050     3.1970     0.4390 ha         1 IRA       0.101000
     15 H2          -1.8750     2.3020     0.6890 ha         1 IRA       0.104000
     16 H3          -0.5170    -1.6010    -0.5310 ha         1 IRA       0.123000
     17 H4           2.3770     3.8230    -0.7390 h1         1 IRA       0.028700
     18 H5           2.7270     3.3990     0.9600 h1         1 IRA       0.028700
     19 H6           4.0050     3.2920    -0.2690 h1         1 IRA       0.028700
     20 H7           1.6350    -1.7650    -1.6000 hc         1 IRA       0.035200
     21 H8           2.8910    -0.4580    -1.4450 hc         1 IRA       0.035200
@<TRIPOS>BOND
     1     1     2 ar  
     2     1     6 1   
     3     1     9 ar  
     4     2     3 ar  
     5     2    14 1   
     6     3     4 ar  
     7     3    15 1   
     8     4     5 ar  
     9     4     8 1   
    10     5     9 ar  
    11     5    16 1   
    12     6     7 1   
    13     7    17 1   
    14     7    18 1   
    15     7    19 1   
    16     9    12 1   
    17    10    11 1   
    18    10    12 1   
    19    10    13 1   
    20    12    20 1   
    21    12    21 1   
@<TRIPOS>SUBSTRUCTURE
     1 IRA         1 TEMP              0 ****  ****    0 ROOT
