@<TRIPOS>MOLECULE
IRB
   34    37     1     0     0
SMALL
abcg2


@<TRIPOS>ATOM
      1 OAA         -7.0190     1.5360     0.0650 o          1 IRB      -0.713500
      2 OAC         -2.3680     2.7950     0.0120 oh         1 IRB      -0.469000
      3 OAD         -7.8170    -0.5440     0.0210 o          1 IRB      -0.713500
      4 BRAE         5.6710    -0.5200    -0.1110 br         1 IRB      -0.123100
      5 CAF          2.9080     2.5690    -0.0500 ca         1 IRB      -0.144000
      6 CAG          4.1010     1.8630    -0.0700 ca         1 IRB      -0.078000
      7 CAH         -5.2460    -1.6250    -0.0060 ca         1 IRB      -0.043000
      8 CAI          1.6770     1.9200    -0.0450 ca         1 IRB      -0.062000
      9 CAJ         -3.9660    -2.1650    -0.0260 ca         1 IRB      -0.160000
     10 CAK         -4.3880     0.6240     0.0110 ca         1 IRB       0.007000
     11 NAL         -1.3670     1.9070    -0.0100 n2         1 IRB      -0.320700
     12 NAM          2.5980    -1.5290    -0.0910 ns         1 IRB      -0.385100
     13 NAN         -1.5550    -1.5520    -0.0480 na         1 IRB      -0.256700
     14 CAO         -6.8970     0.2960     0.0350 c          1 IRB       0.714600
     15 CAP         -5.4760    -0.2480     0.0130 ca         1 IRB      -0.158600
     16 CAQ          4.0700     0.4740    -0.0840 ca         1 IRB      -0.057900
     17 CAR          1.2550    -1.7820    -0.0820 c          1 IRB       0.574200
     18 CAS         -0.7960    -0.4310    -0.0430 cc         1 IRB       0.106300
     19 CAT         -1.7630     0.6940    -0.0190 cc         1 IRB       0.459200
     20 CAU          0.5800    -0.4750    -0.0600 cd         1 IRB      -0.294400
     21 CAV         -2.9070    -1.2780    -0.0290 ca         1 IRB      -0.022200
     22 CAW          1.6300     0.5310    -0.0590 ca         1 IRB      -0.021800
     23 CAX         -3.1010     0.1060    -0.0100 ca         1 IRB      -0.248900
     24 CAY          2.8530    -0.1780    -0.0790 ca         1 IRB       0.059600
     25 HOAC        -1.9360     3.6590     0.0170 ho         1 IRB       0.462000
     26 HAF          2.9380     3.6500    -0.0390 ha         1 IRB       0.109000
     27 HAG          5.0450     2.3910    -0.0730 ha         1 IRB       0.117000
     28 HAH         -6.0950    -2.2950    -0.0040 ha         1 IRB       0.137000
     29 HAI          0.7700     2.5000    -0.0300 ha         1 IRB       0.140000
     30 HAJ         -3.8070    -3.2350    -0.0400 ha         1 IRB       0.107000
     31 HAK         -4.5650     1.6880     0.0270 ha         1 IRB       0.152000
     32 HNAM         3.2940    -2.2580    -0.1100 hn         1 IRB       0.339500
     33 HNAN        -1.1370    -2.4750    -0.0670 hn         1 IRB       0.389000
     34 OAB          0.7640    -2.9070    -0.0900 o          1 IRB      -0.599000
@<TRIPOS>BOND
     1     1    14 1   
     2     2    11 1   
     3     2    25 1   
     4     3    14 1   
     5     4    16 1   
     6     5     6 ar  
     7     5     8 ar  
     8     5    26 1   
     9     6    16 ar  
    10     6    27 1   
    11     7     9 ar  
    12     7    15 ar  
    13     7    28 1   
    14     8    22 ar  
    15     8    29 1   
    16     9    21 ar  
    17     9    30 1   
    18    10    15 ar  
    19    10    23 ar  
    20    10    31 1   
    21    11    19 2   
    22    12    17 1   
    23    12    24 1   
    24    12    32 1   
    25    13    18 1   
    26    13    21 1   
    27    13    33 1   
    28    14    15 1   
    29    16    24 ar  
    30    17    20 1   
    31    17    34 2   
    32    18    19 1   
    33    18    20 2   
    34    19    23 1   
    35    20    22 1   
    36    21    23 ar  
    37    22    24 ar  
@<TRIPOS>SUBSTRUCTURE
     1 IRB         1 TEMP              0 ****  ****    0 ROOT
