@<TRIPOS>MOLECULE
IRB
   34    37     1     0     0
SMALL
No Charge or Current Charge


@<TRIPOS>ATOM
      1 OAA         -7.0810     1.4900     0.0800 o          1 IRB      -0.713500
      2 OAC         -2.4900     2.9420     0.3850 oh         1 IRB      -0.469000
      3 OAD         -7.8440    -0.5120    -0.0640 o          1 IRB      -0.713500
      4 BrAE         5.7460    -0.5520     0.0750 br         1 IRB      -0.123100
      5 CAF          2.9310     2.5640    -0.3070 ca         1 IRB      -0.144000
      6 CAG          4.1430     1.8480    -0.1860 ca         1 IRB      -0.078000
      7 CAH         -5.2610    -1.6550    -0.1300 ca         1 IRB      -0.043000
      8 CAI          1.6850     1.8970    -0.2690 ca         1 IRB      -0.062000
      9 CAJ         -3.9490    -2.1660    -0.1570 ca         1 IRB      -0.160000
     10 CAK         -4.3940     0.6310     0.0440 ca         1 IRB       0.007000
     11 NAL         -1.4530     1.9970     0.2680 n2         1 IRB      -0.320700
     12 NAM          2.5840    -1.5350     0.0770 ns         1 IRB      -0.385100
     13 NAN         -1.5340    -1.5710    -0.0920 na         1 IRB      -0.256700
     14 CAO         -6.9150     0.2820    -0.0020 c          1 IRB       0.714600
     15 CAP         -5.4980    -0.2570    -0.0300 ca         1 IRB      -0.158600
     16 CAQ          4.1190     0.4500    -0.0430 ca         1 IRB      -0.057900
     17 CAR          1.2610    -1.8480     0.0550 c          1 IRB       0.574200
     18 CAS         -0.8320    -0.3730    -0.0130 cc         1 IRB       0.106300
     19 CAT         -1.7630     0.7370     0.0820 cc         1 IRB       0.459200
     20 CAU          0.5670    -0.5130    -0.0180 cd         1 IRB      -0.294400
     21 CAV         -2.8830    -1.2660    -0.0830 ca         1 IRB      -0.022200
     22 CAW          1.6640     0.4990    -0.0860 ca         1 IRB      -0.021800
     23 CAX         -3.0850     0.1030     0.0130 ca         1 IRB      -0.248900
     24 CAY          2.8720    -0.1830    -0.0040 ca         1 IRB       0.059600
     25 HOAC        -2.0350     3.8070     0.5220 ho         1 IRB       0.462000
     26 HAF          2.9570     3.6420    -0.4440 ha         1 IRB       0.109000
     27 HAG          5.0940     2.3770    -0.2230 ha         1 IRB       0.117000
     28 HAH         -6.0960    -2.3510    -0.1880 ha         1 IRB       0.137000
     29 HAI          0.7900     2.4810    -0.4150 ha         1 IRB       0.140000
     30 HAJ         -3.7720    -3.2360    -0.2320 ha         1 IRB       0.107000
     31 HAK         -4.5690     1.7000     0.1200 ha         1 IRB       0.152000
     32 HNAM         3.3020    -2.2470     0.1200 hn         1 IRB       0.339500
     33 HNAN        -1.1150    -2.4970    -0.1290 hn         1 IRB       0.389000
     34 OAB          0.7990    -2.9790     0.1010 o          1 IRB      -0.599000
@<TRIPOS>BOND
     1     1    14 1   
     2     2    11 1   
     3     2    25 1   
     4     3    14 1   
     5     4    16 1   
     6     5     6 ar  
     7     5     8 ar  
     8     5    26 1   
     9     6    16 ar  
    10     6    27 1   
    11     7     9 ar  
    12     7    15 ar  
    13     7    28 1   
    14     8    22 ar  
    15     8    29 1   
    16     9    21 ar  
    17     9    30 1   
    18    10    15 ar  
    19    10    23 ar  
    20    10    31 1   
    21    11    19 2   
    22    12    17 1   
    23    12    24 1   
    24    12    32 1   
    25    13    18 1   
    26    13    21 1   
    27    13    33 1   
    28    14    15 1   
    29    16    24 ar  
    30    17    20 1   
    31    17    34 2   
    32    18    19 1   
    33    18    20 2   
    34    19    23 1   
    35    20    22 1   
    36    21    23 ar  
    37    22    24 ar  
@<TRIPOS>SUBSTRUCTURE
     1 IRB         1 TEMP              0 ****  ****    0 ROOT
