@<TRIPOS>MOLECULE
IRD
   48    51     1     0     0
SMALL
bcc


@<TRIPOS>ATOM
      1 N1          71.1030    38.1780     0.5560 nb         1 IRD      -0.786000
      2 C2          66.0370    34.8430     4.0960 c3         1 IRD       0.251900
      3 N3          73.0840    37.5990    -0.6040 nb         1 IRD      -0.768000
      4 C4          66.3770    36.0680     3.3630 c1         1 IRD      -0.124100
      5 C5          66.6790    37.0870     2.7940 cg         1 IRD      -0.093000
      6 C6          67.0320    38.3000     2.1290 ca         1 IRD      -0.009000
      7 O           64.9750    34.2360     3.3790 oh         1 IRD      -0.583800
      8 C3          65.5850    35.2120     5.5130 c3         1 IRD      -0.118100
      9 C1          67.2640    33.9160     4.1640 c3         1 IRD      -0.097400
     10 C           67.8020    33.4720     2.8140 c3         1 IRD      -0.085100
     11 C13         68.2630    38.4000     1.4850 ca         1 IRD      -0.035000
     12 C12         68.6120    39.5970     0.8570 ca         1 IRD      -0.064800
     13 C9          67.6910    40.6630     0.8960 ca         1 IRD      -0.050200
     14 C8          66.4560    40.5780     1.5300 ca         1 IRD      -0.154000
     15 C7          66.1360    39.3890     2.1470 ca         1 IRD      -0.085000
     16 C11         69.7560    40.0630     0.1020 cc         1 IRD      -0.217000
     17 C14         70.9380    39.2660    -0.1970 ca         1 IRD       0.608100
     18 C17         71.8530    39.5690    -1.2200 ca         1 IRD      -0.375900
     19 C16         72.9080    38.6820    -1.3470 ca         1 IRD       0.473200
     20 C15         72.1500    37.3920     0.3250 ca         1 IRD       0.894900
     21 N2          72.2560    36.2670     1.0770 nv         1 IRD      -0.940500
     22 C18         71.7540    40.7570    -2.1230 c3         1 IRD      -0.006100
     23 C19         71.6620    42.0810    -1.3660 c3         1 IRD      -0.065400
     24 C20         70.2370    42.4300    -0.9840 c3         1 IRD      -0.027200
     25 C10         69.4800    41.3740    -0.2520 cd         1 IRD      -0.014300
     26 N           68.2520    41.7080     0.2260 na         1 IRD      -0.168400
     27 H1          64.7290    33.4290     3.8480 ho         1 IRD       0.402000
     28 H2          65.3130    34.3090     6.0640 hc         1 IRD       0.045033
     29 H3          66.3830    35.7120     6.0610 hc         1 IRD       0.045033
     30 H4          64.7200    35.8740     5.4870 hc         1 IRD       0.045033
     31 H5          66.9790    33.0410     4.7580 hc         1 IRD       0.041700
     32 H6          68.0480    34.4250     4.7300 hc         1 IRD       0.041700
     33 H7          68.6540    32.8060     2.9460 hc         1 IRD       0.039033
     34 H8          67.0500    32.9330     2.2380 hc         1 IRD       0.039033
     35 H9          68.1390    34.3210     2.2160 hc         1 IRD       0.039033
     36 H10         68.9410    37.5610     1.4870 ha         1 IRD       0.161000
     37 H11         65.7710    41.4160     1.5390 ha         1 IRD       0.133000
     38 H12         65.1870    39.2850     2.6560 ha         1 IRD       0.138000
     39 H13         73.6610    38.8630    -2.1100 h4         1 IRD       0.015100
     40 H14         73.1500    35.8070     1.0990 hn         1 IRD       0.429300
     41 H15         71.7240    36.2270     1.9290 hn         1 IRD       0.429300
     42 H16         70.8900    40.6620    -2.7900 hc         1 IRD       0.047700
     43 H17         72.6330    40.7650    -2.7710 hc         1 IRD       0.047700
     44 H18         72.2990    42.0470    -0.4780 hc         1 IRD       0.049200
     45 H19         72.0450    42.8910    -1.9880 hc         1 IRD       0.049200
     46 H20         70.2330    43.3390    -0.3750 hc         1 IRD       0.050700
     47 H21         69.6740    42.6810    -1.8900 hc         1 IRD       0.050700
     48 H22         67.8280    42.6160     0.1120 hn         1 IRD       0.298700
@<TRIPOS>BOND
     1     1    17 ar  
     2     1    20 ar  
     3     2     4 1   
     4     2     7 1   
     5     2     8 1   
     6     2     9 1   
     7     3    19 ar  
     8     3    20 ar  
     9     4     5 3   
    10     5     6 1   
    11     6    11 ar  
    12     6    15 ar  
    13     7    27 1   
    14     8    28 1   
    15     8    29 1   
    16     8    30 1   
    17     9    10 1   
    18     9    31 1   
    19     9    32 1   
    20    10    33 1   
    21    10    34 1   
    22    10    35 1   
    23    11    12 ar  
    24    11    36 1   
    25    12    13 ar  
    26    12    16 1   
    27    13    14 ar  
    28    13    26 1   
    29    14    15 ar  
    30    14    37 1   
    31    15    38 1   
    32    16    17 1   
    33    16    25 2   
    34    17    18 ar  
    35    18    19 ar  
    36    18    22 1   
    37    19    39 1   
    38    20    21 1   
    39    21    40 1   
    40    21    41 1   
    41    22    23 1   
    42    22    42 1   
    43    22    43 1   
    44    23    24 1   
    45    23    44 1   
    46    23    45 1   
    47    24    25 1   
    48    24    46 1   
    49    24    47 1   
    50    25    26 1   
    51    26    48 1   
@<TRIPOS>SUBSTRUCTURE
     1 IRD         1 TEMP              0 ****  ****    0 ROOT
