@<TRIPOS>MOLECULE
IRD
   48    51     1     0     0
SMALL
No Charge or Current Charge


@<TRIPOS>ATOM
      1 N1          71.2370    38.3090     0.7420 nb         1 IRD      -0.260000
      2 C2          65.9500    34.7830     3.9690 c3         1 IRD       0.275100
      3 N3          73.1200    37.6250    -0.5760 nb         1 IRD      -0.242000
      4 C4          66.2910    36.0730     3.3490 c1         1 IRD      -0.124100
      5 C5          66.6160    37.1300     2.8430 cg         1 IRD      -0.093000
      6 C6          67.0130    38.3690     2.2420 ca         1 IRD      -0.009000
      7 O           65.0220    34.0990     3.1280 oh         1 IRD      -0.646000
      8 C3          65.2530    35.0300     5.3260 c3         1 IRD      -0.118100
      9 C1          67.2150    33.8920     4.1530 c3         1 IRD      -0.097400
     10 C           67.9800    33.5240     2.8550 c3         1 IRD      -0.085100
     11 C13         68.2190    38.4400     1.5100 ca         1 IRD      -0.017000
     12 C12         68.5790    39.6740     0.9390 ca         1 IRD      -0.064800
     13 C9          67.7790    40.7730     1.0600 ca         1 IRD      -0.050200
     14 C8          66.5760    40.7350     1.7780 ca         1 IRD      -0.136000
     15 C7          66.1960    39.5170     2.3790 ca         1 IRD      -0.067000
     16 C11         69.7100    40.0640     0.1310 cc         1 IRD      -0.217000
     17 C14         70.9240    39.2730    -0.1520 ca         1 IRD       0.279800
     18 C17         71.7220    39.4430    -1.3100 ca         1 IRD      -0.245300
     19 C16         72.8240    38.5800    -1.4750 ca         1 IRD       0.144900
     20 C15         72.3060    37.5500     0.4810 ca         1 IRD       0.368900
     21 N2          72.5990    36.5930     1.3970 nv         1 IRD      -1.050900
     22 C18         71.4710    40.5380    -2.3280 c3         1 IRD      -0.006100
     23 C19         71.6340    41.9110    -1.6630 c3         1 IRD      -0.065400
     24 C20         70.3550    42.4190    -0.9780 c3         1 IRD      -0.027200
     25 C10         69.5340    41.4200    -0.1870 cd         1 IRD      -0.014300
     26 N           68.3150    41.8530     0.3860 na         1 IRD      -0.218700
     27 H1          64.8430    33.2360     3.5560 ho         1 IRD       0.441000
     28 H2          64.9710    34.0820     5.8020 hc         1 IRD       0.045033
     29 H3          65.9190    35.5650     6.0140 hc         1 IRD       0.045033
     30 H4          64.3440    35.6290     5.1990 hc         1 IRD       0.045033
     31 H5          66.9270    32.9600     4.6560 hc         1 IRD       0.041700
     32 H6          67.9120    34.3990     4.8310 hc         1 IRD       0.041700
     33 H7          68.8330    32.8770     3.0910 hc         1 IRD       0.039033
     34 H8          67.3330    32.9850     2.1530 hc         1 IRD       0.039033
     35 H9          68.3670    34.4180     2.3530 hc         1 IRD       0.039033
     36 H10         68.8380    37.5560     1.3880 ha         1 IRD       0.143000
     37 H11         65.9490    41.6180     1.8690 ha         1 IRD       0.115000
     38 H12         65.2670    39.4610     2.9420 ha         1 IRD       0.120000
     39 H13         73.4870    38.6600    -2.3350 h4         1 IRD       0.015100
     40 H14         73.5060    36.1350     1.3500 hn         1 IRD       0.484500
     41 H15         72.1490    36.6320     2.3080 hn         1 IRD       0.484500
     42 H16         70.4740    40.4430    -2.7770 hc         1 IRD       0.047700
     43 H17         72.1890    40.4600    -3.1540 hc         1 IRD       0.047700
     44 H18         72.4530    41.8700    -0.9330 hc         1 IRD       0.049200
     45 H19         71.9340    42.6440    -2.4210 hc         1 IRD       0.049200
     46 H20         70.6260    43.2620    -0.3310 hc         1 IRD       0.050700
     47 H21         69.7120    42.8430    -1.7590 hc         1 IRD       0.050700
     48 H22         67.9190    42.7840     0.3230 hn         1 IRD       0.349000
@<TRIPOS>BOND
     1     1    17 ar  
     2     1    20 ar  
     3     2     4 1   
     4     2     7 1   
     5     2     8 1   
     6     2     9 1   
     7     3    19 ar  
     8     3    20 ar  
     9     4     5 3   
    10     5     6 1   
    11     6    11 ar  
    12     6    15 ar  
    13     7    27 1   
    14     8    28 1   
    15     8    29 1   
    16     8    30 1   
    17     9    10 1   
    18     9    31 1   
    19     9    32 1   
    20    10    33 1   
    21    10    34 1   
    22    10    35 1   
    23    11    12 ar  
    24    11    36 1   
    25    12    13 ar  
    26    12    16 1   
    27    13    14 ar  
    28    13    26 1   
    29    14    15 ar  
    30    14    37 1   
    31    15    38 1   
    32    16    17 1   
    33    16    25 2   
    34    17    18 ar  
    35    18    19 ar  
    36    18    22 1   
    37    19    39 1   
    38    20    21 1   
    39    21    40 1   
    40    21    41 1   
    41    22    23 1   
    42    22    42 1   
    43    22    43 1   
    44    23    24 1   
    45    23    44 1   
    46    23    45 1   
    47    24    25 1   
    48    24    46 1   
    49    24    47 1   
    50    25    26 1   
    51    26    48 1   
@<TRIPOS>SUBSTRUCTURE
     1 IRD         1 TEMP              0 ****  ****    0 ROOT
