@<TRIPOS>MOLECULE
IRE
   55    58     1     0     0
SMALL
No Charge or Current Charge


@<TRIPOS>ATOM
      1 CAO          6.7390    -1.2790     1.0420 c6         1 IRE       0.125300
      2 CAL          8.2590    -1.5920     0.8980 c6         1 IRE       0.153100
      3 OAU          8.4670    -3.0130     0.7140 os         1 IRE      -0.449000
      4 CAM          7.7760    -3.5290    -0.4490 c6         1 IRE       0.153100
      5 CAP          6.2460    -3.2610    -0.3300 c6         1 IRE       0.125300
      6 NBE          5.9470    -1.8100    -0.1160 n3         1 IRE      -0.714600
      7 CAN          4.4890    -1.5460    -0.0260 c3         1 IRE       0.169800
      8 CAJ          4.1030    -0.0510    -0.0360 c3         1 IRE      -0.083400
      9 CAK          2.5800     0.1600    -0.1030 c3         1 IRE       0.159600
     10 OAV          2.3370     1.5770    -0.1010 os         1 IRE      -0.327100
     11 CBA          1.0610     2.1160    -0.1530 ca         1 IRE       0.090100
     12 CAZ          0.9170     3.5230    -0.1450 ca         1 IRE       0.171100
     13 CAH         -0.3740     4.0920    -0.1980 ca         1 IRE      -0.238000
     14 OAT          2.0580     4.3060    -0.0860 os         1 IRE      -0.311100
     15 CAA          2.0100     5.7430    -0.0730 c3         1 IRE       0.142900
     16 CAI         -0.0940     1.3020    -0.2140 ca         1 IRE      -0.100000
     17 C5          -1.3790     1.8970    -0.2660 ca         1 IRE      -0.198900
     18 C4          -1.5010     3.2660    -0.2570 ca         1 IRE       0.301000
     19 N3          -2.7440     3.8360    -0.3080 na         1 IRE      -0.906200
     20 C2          -3.9030     3.0790    -0.3680 cc         1 IRE       0.673100
     21 N1          -3.8690     1.7510    -0.3800 nd         1 IRE      -0.772000
     22 C6          -2.6300     1.1550    -0.3300 cd         1 IRE       0.730900
     23 NAS         -2.5230    -0.1500    -0.3380 ne         1 IRE      -0.630100
     24 CAY         -3.5970    -1.0540    -0.4110 ca         1 IRE       0.171400
     25 CAG         -4.2180    -1.5100     0.7660 ca         1 IRE      -0.089000
     26 CAX         -5.2880    -2.4180     0.6940 ca         1 IRE       0.079000
     27 Cl          -6.0540    -2.9720     2.1830 cl         1 IRE      -0.186000
     28 CAW         -5.7370    -2.8750    -0.5610 ca         1 IRE       0.159000
     29 FAB         -6.7660    -3.7500    -0.6440 f          1 IRE      -0.167000
     30 CAD         -5.1170    -2.4270    -1.7390 ca         1 IRE      -0.139000
     31 CAE         -4.0460    -1.5170    -1.6620 ca         1 IRE      -0.087000
     32 HAO1         6.6260    -0.1890     1.1270 h1         1 IRE       0.041700
     33 HAO2         6.3780    -1.7160     1.9850 h1         1 IRE       0.041700
     34 HAL1         8.7960    -1.2640     1.7990 h1         1 IRE       0.051200
     35 HAL2         8.6740    -1.0500     0.0360 h1         1 IRE       0.051200
     36 HAM1         7.9620    -4.6090    -0.5280 h1         1 IRE       0.051200
     37 HAM2         8.1730    -3.0450    -1.3530 h1         1 IRE       0.051200
     38 HAP1         5.8490    -3.8590     0.5050 h1         1 IRE       0.041700
     39 HAP2         5.7550    -3.6210    -1.2450 h1         1 IRE       0.041700
     40 HAN1         4.0800    -2.0100     0.8810 h1         1 IRE       0.032200
     41 HAN2         3.9890    -2.0210    -0.8810 h1         1 IRE       0.032200
     42 HAJ1         4.5720     0.4360    -0.8990 hc         1 IRE       0.063700
     43 HAJ2         4.4840     0.4380     0.8670 hc         1 IRE       0.063700
     44 HAK1         2.1060    -0.3170     0.7650 h1         1 IRE       0.037200
     45 HAK2         2.1870    -0.3000    -1.0190 h1         1 IRE       0.037200
     46 HAH         -0.5130     5.1670    -0.1930 ha         1 IRE       0.124000
     47 HAA1         3.0260     6.1560    -0.0230 h1         1 IRE       0.044367
     48 HAA2         1.5330     6.1250    -0.9840 h1         1 IRE       0.044367
     49 HAA3         1.4520     6.1070     0.7990 h1         1 IRE       0.044367
     50 HAI         -0.0020     0.2190    -0.2210 ha         1 IRE       0.153000
     51 H3          -2.8400     4.8460    -0.3020 hn         1 IRE       0.508000
     52 H2          -4.8460     3.6140    -0.4050 h5         1 IRE       0.046800
     53 HAG         -3.8710    -1.1570     1.7320 ha         1 IRE       0.136000
     54 HAD         -5.4650    -2.7830    -2.7050 ha         1 IRE       0.131000
     55 HAE         -3.5640    -1.1690    -2.5730 ha         1 IRE       0.125000
@<TRIPOS>BOND
     1     1     2 1   
     2     1     6 1   
     3     1    32 1   
     4     1    33 1   
     5     2     3 1   
     6     2    34 1   
     7     2    35 1   
     8     3     4 1   
     9     4     5 1   
    10     4    36 1   
    11     4    37 1   
    12     5     6 1   
    13     5    38 1   
    14     5    39 1   
    15     6     7 1   
    16     7     8 1   
    17     7    40 1   
    18     7    41 1   
    19     8     9 1   
    20     8    42 1   
    21     8    43 1   
    22     9    10 1   
    23     9    44 1   
    24     9    45 1   
    25    10    11 1   
    26    11    12 ar  
    27    11    16 ar  
    28    12    13 ar  
    29    12    14 1   
    30    13    18 ar  
    31    13    46 1   
    32    14    15 1   
    33    15    47 1   
    34    15    48 1   
    35    15    49 1   
    36    16    17 ar  
    37    16    50 1   
    38    17    18 ar  
    39    17    22 1   
    40    18    19 1   
    41    19    20 1   
    42    19    51 1   
    43    20    21 2   
    44    20    52 1   
    45    21    22 1   
    46    22    23 2   
    47    23    24 1   
    48    24    25 ar  
    49    24    31 ar  
    50    25    26 ar  
    51    25    53 1   
    52    26    27 1   
    53    26    28 ar  
    54    28    29 1   
    55    28    30 ar  
    56    30    31 ar  
    57    30    54 1   
    58    31    55 1   
@<TRIPOS>SUBSTRUCTURE
     1 IRE         1 TEMP              0 ****  ****    0 ROOT
