@<TRIPOS>MOLECULE
IRE
   55    58     1     0     0
SMALL
bcc


@<TRIPOS>ATOM
      1 CAO          6.6430    -1.3040     0.9260 c6         1 IRE       0.125300
      2 CAL          8.0940    -1.6290     0.6230 c6         1 IRE       0.129900
      3 OAU          8.2830    -3.0030     0.3690 os         1 IRE      -0.402600
      4 CAM          7.4620    -3.4290    -0.6970 c6         1 IRE       0.129900
      5 CAP          5.9990    -3.1500    -0.4170 c6         1 IRE       0.125300
      6 NBE          5.7950    -1.7340    -0.1720 n3         1 IRE      -0.714600
      7 CAN          4.3930    -1.4380     0.0450 c3         1 IRE       0.169800
      8 CAJ          4.0910     0.0550     0.0680 c3         1 IRE      -0.083400
      9 CAK          2.5960     0.2880     0.0090 c3         1 IRE       0.136400
     10 OAV          2.3620     1.6860     0.0690 os         1 IRE      -0.303900
     11 CBA          1.0950     2.1230    -0.0210 ca         1 IRE       0.090100
     12 CAZ          0.9430     3.5370     0.0090 ca         1 IRE       0.171100
     13 CAH         -0.3130     4.0980    -0.0830 ca         1 IRE      -0.256000
     14 OAT          2.0790     4.2290     0.1290 os         1 IRE      -0.287900
     15 CAA          2.0100     5.6440     0.1500 c3         1 IRE       0.119700
     16 CAI         -0.0170     1.3250    -0.1380 ca         1 IRE      -0.118000
     17 C5          -1.3000     1.8850    -0.2340 ca         1 IRE      -0.198900
     18 C4          -1.4300     3.2660    -0.2070 ca         1 IRE       0.162600
     19 N3          -2.6970     3.7960    -0.3080 na         1 IRE      -0.712600
     20 C2          -3.7580     2.9920    -0.4360 cc         1 IRE       0.673100
     21 N1          -3.7180     1.7030    -0.4620 nd         1 IRE      -0.772000
     22 C6          -2.5030     1.0630    -0.3560 cd         1 IRE       0.730900
     23 NAS         -2.3760    -0.2180    -0.3870 ne         1 IRE      -0.630100
     24 CAY         -3.4580    -1.0800    -0.4350 ca         1 IRE       0.171400
     25 CAG         -4.5720    -0.9800     0.4090 ca         1 IRE      -0.107000
     26 CAX         -5.5750    -1.9320     0.3590 ca         1 IRE      -0.012600
     27 CL          -6.9440    -1.8140     1.4050 cl         1 IRE      -0.094400
     28 CAW         -5.4940    -2.9900    -0.5300 ca         1 IRE       0.123900
     29 FAB         -6.4750    -3.9000    -0.5660 f          1 IRE      -0.131900
     30 CAD         -4.4040    -3.1130    -1.3670 ca         1 IRE      -0.157000
     31 CAE         -3.3920    -2.1700    -1.3100 ca         1 IRE      -0.105000
     32 HAO1         6.5600    -0.2240     1.0660 h1         1 IRE       0.041700
     33 HAO2         6.3450    -1.7780     1.8780 h1         1 IRE       0.041700
     34 HAL1         8.7220    -1.3630     1.4750 h1         1 IRE       0.051200
     35 HAL2         8.4240    -1.0310    -0.2390 h1         1 IRE       0.051200
     36 HAM1         7.6240    -4.5000    -0.8280 h1         1 IRE       0.051200
     37 HAM2         7.7550    -2.9250    -1.6290 h1         1 IRE       0.051200
     38 HAP1         5.6620    -3.7660     0.4360 h1         1 IRE       0.041700
     39 HAP2         5.4080    -3.4560    -1.2840 h1         1 IRE       0.041700
     40 HAN1         4.0190    -1.9030     0.9750 h1         1 IRE       0.032200
     41 HAN2         3.8320    -1.8970    -0.7750 h1         1 IRE       0.032200
     42 HAJ1         4.5740     0.5320    -0.7900 hc         1 IRE       0.063700
     43 HAJ2         4.4890     0.5200     0.9730 hc         1 IRE       0.063700
     44 HAK1         2.0950    -0.2150     0.8440 h1         1 IRE       0.037200
     45 HAK2         2.1840    -0.1240    -0.9200 h1         1 IRE       0.037200
     46 HAH         -0.4530     5.1700    -0.0630 ha         1 IRE       0.142000
     47 HAA1         3.0320     5.9990     0.2460 h1         1 IRE       0.044367
     48 HAA2         1.5800     6.0410    -0.7720 h1         1 IRE       0.044367
     49 HAA3         1.4280     6.0080     1.0010 h1         1 IRE       0.044367
     50 HAI          0.0620     0.2470    -0.1620 ha         1 IRE       0.171000
     51 H3          -2.8330     4.7960    -0.2890 hn         1 IRE       0.452800
     52 H2          -4.7120     3.4970    -0.5270 h5         1 IRE       0.046800
     53 HAG         -4.6520    -0.1680     1.1180 ha         1 IRE       0.154000
     54 HAD         -4.3460    -3.9470    -2.0550 ha         1 IRE       0.149000
     55 HAE         -2.5280    -2.2730    -1.9540 ha         1 IRE       0.143000
@<TRIPOS>BOND
     1     1     2 1   
     2     1     6 1   
     3     1    32 1   
     4     1    33 1   
     5     2     3 1   
     6     2    34 1   
     7     2    35 1   
     8     3     4 1   
     9     4     5 1   
    10     4    36 1   
    11     4    37 1   
    12     5     6 1   
    13     5    38 1   
    14     5    39 1   
    15     6     7 1   
    16     7     8 1   
    17     7    40 1   
    18     7    41 1   
    19     8     9 1   
    20     8    42 1   
    21     8    43 1   
    22     9    10 1   
    23     9    44 1   
    24     9    45 1   
    25    10    11 1   
    26    11    12 ar  
    27    11    16 ar  
    28    12    13 ar  
    29    12    14 1   
    30    13    18 ar  
    31    13    46 1   
    32    14    15 1   
    33    15    47 1   
    34    15    48 1   
    35    15    49 1   
    36    16    17 ar  
    37    16    50 1   
    38    17    18 ar  
    39    17    22 1   
    40    18    19 1   
    41    19    20 1   
    42    19    51 1   
    43    20    21 2   
    44    20    52 1   
    45    21    22 1   
    46    22    23 2   
    47    23    24 1   
    48    24    25 ar  
    49    24    31 ar  
    50    25    26 ar  
    51    25    53 1   
    52    26    27 1   
    53    26    28 ar  
    54    28    29 1   
    55    28    30 ar  
    56    30    31 ar  
    57    30    54 1   
    58    31    55 1   
@<TRIPOS>SUBSTRUCTURE
     1 IRE         1 TEMP              0 ****  ****    0 ROOT
