@<TRIPOS>MOLECULE
IRF
   44    46     1     0     0
SMALL
abcg2


@<TRIPOS>ATOM
      1 N1          -6.1070    -5.4530    -3.2500 nc         1 IRF      -0.436400
      2 C2          -7.0570    -5.8200    -4.1490 c          1 IRF       0.734400
      3 O2          -7.9410    -6.6080    -3.8780 o          1 IRF      -0.501000
      4 N3          -7.0150    -5.2760    -5.4350 ns         1 IRF      -0.497500
      5 C4          -6.1240    -4.3570    -5.8960 c          1 IRF       0.481500
      6 O4          -6.1450    -3.9120    -7.0210 o          1 IRF      -0.486000
      7 C4A         -5.1210    -3.9520    -4.8800 cd         1 IRF       0.224500
      8 N5          -4.2500    -3.0660    -5.2080 nc         1 IRF      -0.527000
      9 C5A         -3.3300    -2.6940    -4.2850 ca         1 IRF       0.176000
     10 C6          -2.3930    -1.7120    -4.6330 ca         1 IRF      -0.025000
     11 C7          -1.4210    -1.2790    -3.7590 ca         1 IRF      -0.076300
     12 C7M         -0.4390    -0.2290    -4.1730 c3         1 IRF      -0.051800
     13 C8          -1.4150    -1.8810    -2.4850 ca         1 IRF       0.248000
     14 C9          -2.3190    -2.8500    -2.1010 ca         1 IRF      -0.133000
     15 C9A         -3.3010    -3.2740    -3.0030 ca         1 IRF      -0.007000
     16 N10         -4.2400    -4.2290    -2.6870 na         1 IRF      -0.016000
     17 C10         -5.1940    -4.5920    -3.5830 cd         1 IRF       0.120000
     18 C1          -4.1890    -4.8960    -1.3880 c3         1 IRF       0.052600
     19 C11         -3.1090    -5.9770    -1.3690 c3         1 IRF       0.158300
     20 O1          -3.4450    -6.9340    -2.3410 oh         1 IRF      -0.698000
     21 C3          -3.0320    -6.5880     0.0320 c3         1 IRF       0.153300
     22 O3          -2.6230    -5.5530     0.8950 oh         1 IRF      -0.736000
     23 C12         -2.0930    -7.7930     0.1200 c3         1 IRF       0.098300
     24 O6          -2.1620    -8.2360     1.4600 oh         1 IRF      -0.727000
     25 C5          -0.6520    -7.4740    -0.2660 c3         1 IRF       0.115600
     26 I8           0.0240    -1.3090    -1.0660 i          1 IRF      -0.284000
     27 O5           0.2030    -8.5640     0.0150 oh         1 IRF      -0.717000
     28 H3          -7.7280    -5.5920    -6.0800 hn         1 IRF       0.341500
     29 H6          -2.4550    -1.2940    -5.6300 ha         1 IRF       0.146000
     30 H7M1        -0.6360     0.0970    -5.1930 hc         1 IRF       0.056700
     31 H7M2        -0.4930     0.6470    -3.5260 hc         1 IRF       0.056700
     32 H7M3         0.5850    -0.6020    -4.1330 hc         1 IRF       0.056700
     33 H9          -2.2580    -3.2680    -1.1080 ha         1 IRF       0.151000
     34 H1'1        -5.1640    -5.3410    -1.2090 h1         1 IRF       0.102200
     35 H1'2        -4.0270    -4.1490    -0.6150 h1         1 IRF       0.102200
     36 H2          -2.1380    -5.5180    -1.5970 h1         1 IRF       0.043700
     37 HA          -2.6450    -7.2470    -2.7710 ho         1 IRF       0.505000
     38 H8          -4.0380    -6.9480     0.3010 h1         1 IRF       0.068700
     39 HB          -2.5530    -5.9150     1.7850 ho         1 IRF       0.534000
     40 H4          -2.4710    -8.5740    -0.5570 h1         1 IRF       0.048700
     41 HC          -1.4230    -8.8360     1.6090 ho         1 IRF       0.526000
     42 H5'1        -0.5950    -7.1880    -1.3230 h1         1 IRF       0.056200
     43 H5'2        -0.2840    -6.6310     0.3200 h1         1 IRF       0.056200
     44 H5           0.0070    -9.2730    -0.6070 ho         1 IRF       0.503000
@<TRIPOS>BOND
     1     1     2 1   
     2     1    17 2   
     3     2     3 2   
     4     2     4 1   
     5     4     5 1   
     6     4    28 1   
     7     5     6 2   
     8     5     7 1   
     9     7     8 2   
    10     7    17 1   
    11     8     9 1   
    12     9    10 ar  
    13     9    15 ar  
    14    10    11 ar  
    15    10    29 1   
    16    11    12 1   
    17    11    13 ar  
    18    12    30 1   
    19    12    31 1   
    20    12    32 1   
    21    13    14 ar  
    22    13    26 1   
    23    14    15 ar  
    24    14    33 1   
    25    15    16 1   
    26    16    17 1   
    27    16    18 1   
    28    18    19 1   
    29    18    34 1   
    30    18    35 1   
    31    19    20 1   
    32    19    21 1   
    33    19    36 1   
    34    20    37 1   
    35    21    22 1   
    36    21    23 1   
    37    21    38 1   
    38    22    39 1   
    39    23    24 1   
    40    23    25 1   
    41    23    40 1   
    42    24    41 1   
    43    25    27 1   
    44    25    42 1   
    45    25    43 1   
    46    27    44 1   
@<TRIPOS>SUBSTRUCTURE
     1 IRF         1 TEMP              0 ****  ****    0 ROOT
