@<TRIPOS>MOLECULE
IRF
   44    46     1     0     0
SMALL
No Charge or Current Charge


@<TRIPOS>ATOM
      1 N1          -5.8200    -5.6350    -3.5930 nc         1 IRF      -0.436400
      2 C2          -6.7820    -6.0460    -4.4970 c          1 IRF       0.734400
      3 O2          -7.4950    -7.0100    -4.2920 o          1 IRF      -0.501000
      4 N3          -6.9020    -5.3210    -5.6410 ns         1 IRF      -0.497500
      5 C4          -6.1790    -4.2240    -6.0250 c          1 IRF       0.481500
      6 O4          -6.4020    -3.6750    -7.0960 o          1 IRF      -0.486000
      7 C4A         -5.1390    -3.8090    -5.0240 cd         1 IRF       0.224500
      8 N5          -4.3620    -2.7510    -5.2970 nc         1 IRF      -0.527000
      9 C5A         -3.3820    -2.5210    -4.3220 ca         1 IRF       0.176000
     10 C6          -2.4730    -1.4810    -4.6020 ca         1 IRF      -0.025000
     11 C7          -1.4040    -1.1740    -3.7430 ca         1 IRF      -0.076300
     12 C7M         -0.4420    -0.0430    -4.0950 c3         1 IRF      -0.051800
     13 C8          -1.2370    -1.9370    -2.5750 ca         1 IRF       0.248000
     14 C9          -2.1370    -2.9660    -2.2710 ca         1 IRF      -0.133000
     15 C9A         -3.2350    -3.2670    -3.1190 ca         1 IRF      -0.007000
     16 N10         -4.1500    -4.2840    -2.7660 na         1 IRF      -0.016000
     17 C10         -5.0350    -4.5830    -3.8090 cd         1 IRF       0.120000
     18 C1          -4.1880    -4.8820    -1.4020 c3         1 IRF       0.052600
     19 C11         -3.2950    -6.1440    -1.2570 c3         1 IRF       0.158300
     20 O1          -3.8910    -7.2440    -1.9730 oh         1 IRF      -0.698000
     21 C3          -3.0660    -6.5430     0.2370 c3         1 IRF       0.153300
     22 O3          -2.4360    -5.4760     0.9630 oh         1 IRF      -0.736000
     23 C12         -2.1970    -7.8210     0.4470 c3         1 IRF       0.098300
     24 O6          -1.9000    -7.9650     1.8480 oh         1 IRF      -0.727000
     25 C5          -0.8390    -7.8250    -0.3060 c3         1 IRF       0.115600
     26 I8           0.4030    -1.5600    -1.1990 i          1 IRF      -0.284000
     27 O5          -0.0310    -8.9170     0.1870 oh         1 IRF      -0.717000
     28 H3          -7.6110    -5.6400    -6.2820 hn         1 IRF       0.341500
     29 H6          -2.6000    -0.9120    -5.5200 ha         1 IRF       0.146000
     30 H7M1        -0.7200     0.4530    -5.0330 hc         1 IRF       0.056700
     31 H7M2        -0.4310     0.7250    -3.3130 hc         1 IRF       0.056700
     32 H7M3         0.5820    -0.4170    -4.2170 hc         1 IRF       0.056700
     33 H9          -1.9490    -3.5220    -1.3580 ha         1 IRF       0.151000
     34 H1'1        -5.2230    -5.1380    -1.1420 h1         1 IRF       0.102200
     35 H1'2        -3.8890    -4.1220    -0.6710 h1         1 IRF       0.102200
     36 H2          -2.3160    -5.9110    -1.6960 h1         1 IRF       0.043700
     37 HA          -4.5050    -6.8610    -2.6450 ho         1 IRF       0.505000
     38 H8          -4.0520    -6.7490     0.6760 h1         1 IRF       0.068700
     39 HB          -2.0360    -5.9520     1.7350 ho         1 IRF       0.534000
     40 H4          -2.7750    -8.6880     0.0980 h1         1 IRF       0.048700
     41 HC          -1.0910    -8.5410     1.8370 ho         1 IRF       0.526000
     42 H5'1        -1.0250    -7.9350    -1.3830 h1         1 IRF       0.056200
     43 H5'2        -0.3260    -6.8650    -0.1520 h1         1 IRF       0.056200
     44 H5           0.7790    -8.9600    -0.3760 ho         1 IRF       0.503000
@<TRIPOS>BOND
     1     1     2 1   
     2     1    17 2   
     3     2     3 2   
     4     2     4 1   
     5     4     5 1   
     6     4    28 1   
     7     5     6 2   
     8     5     7 1   
     9     7     8 2   
    10     7    17 1   
    11     8     9 1   
    12     9    10 ar  
    13     9    15 ar  
    14    10    11 ar  
    15    10    29 1   
    16    11    12 1   
    17    11    13 ar  
    18    12    30 1   
    19    12    31 1   
    20    12    32 1   
    21    13    14 ar  
    22    13    26 1   
    23    14    15 ar  
    24    14    33 1   
    25    15    16 1   
    26    16    17 1   
    27    16    18 1   
    28    18    19 1   
    29    18    34 1   
    30    18    35 1   
    31    19    20 1   
    32    19    21 1   
    33    19    36 1   
    34    20    37 1   
    35    21    22 1   
    36    21    23 1   
    37    21    38 1   
    38    22    39 1   
    39    23    24 1   
    40    23    25 1   
    41    23    40 1   
    42    24    41 1   
    43    25    27 1   
    44    25    42 1   
    45    25    43 1   
    46    27    44 1   
@<TRIPOS>SUBSTRUCTURE
     1 IRF         1 TEMP              0 ****  ****    0 ROOT
