@<TRIPOS>MOLECULE
IRG
   37    40     1     0     0
SMALL
No Charge or Current Charge


@<TRIPOS>ATOM
      1 N1           0.4930    -0.8490    -0.1970 nb         1 IRG      -0.293000
      2 C2           0.8980     0.4240    -0.0290 cp         1 IRG       0.250500
      3 N3           0.0630     1.4790     0.0820 nb         1 IRG      -0.230000
      4 C4          -1.2650     1.2640     0.0250 ca         1 IRG       0.109000
      5 C5          -1.7710    -0.0450    -0.1480 ca         1 IRG      -0.228000
      6 C6          -0.8270    -1.0900    -0.2560 ca         1 IRG       0.423900
      7 CAB          5.1900     1.1800     0.1860 ca         1 IRG      -0.095000
      8 CAC          4.2820     2.2450     0.2780 ca         1 IRG      -0.131000
      9 CAD          4.7120    -0.1280     0.0240 ca         1 IRG      -0.131000
     10 CAE          2.8990     2.0040     0.2090 ca         1 IRG      -0.066000
     11 CAF          3.3300    -0.3740    -0.0450 ca         1 IRG      -0.066000
     12 CAG         -4.0450     0.8320    -0.0900 ca         1 IRG      -0.190000
     13 CAH         -3.1680    -0.2580    -0.2050 ca         1 IRG      -0.028000
     14 CAI         -2.1620     2.3400     0.1370 ca         1 IRG      -0.203000
     15 CAJ         -0.8730    -4.8960    -0.1160 cx         1 IRG      -0.133400
     16 CAK          0.1620    -4.1910     0.7250 cx         1 IRG      -0.133400
     17 NAN         -1.2060    -2.4210    -0.4290 nu         1 IRG      -0.906100
     18 CAO         -3.5430     2.1260     0.0800 ca         1 IRG       0.340000
     19 CAP          2.3830     0.6860     0.0450 cp         1 IRG      -0.150500
     20 CAU         -0.3320    -3.5570    -0.5510 cx         1 IRG       0.177500
     21 HNAA        -5.3900     3.0490    -0.0210 hn         1 IRG       0.465000
     22 HNAB        -4.0410     4.1340     0.1400 hn         1 IRG       0.465000
     23 HAB          6.2600     1.3690     0.2390 ha         1 IRG       0.109000
     24 HAC          4.6490     3.2610     0.4030 ha         1 IRG       0.111000
     25 HAD          5.4140    -0.9570    -0.0470 ha         1 IRG       0.111000
     26 HAE          2.2250     2.8550     0.2840 ha         1 IRG       0.133500
     27 HAF          2.9970    -1.4020    -0.1700 ha         1 IRG       0.133500
     28 HAG         -5.1180     0.6640    -0.1330 ha         1 IRG       0.113000
     29 HAH         -3.5860    -1.2520    -0.3350 ha         1 IRG       0.102000
     30 HAI         -1.7770     3.3460     0.2710 ha         1 IRG       0.132000
     31 HAJ         -0.5580    -5.7710    -0.6800 hc         1 IRG       0.078200
     32 HAJA        -1.8890    -4.9430     0.2660 hc         1 IRG       0.078200
     33 HAK         -0.1590    -3.7550     1.6680 hc         1 IRG       0.078200
     34 HAKA         1.1740    -4.5890     0.7270 hc         1 IRG       0.078200
     35 HNAN        -2.2130    -2.5590    -0.4890 hn         1 IRG       0.498000
     36 HAU          0.3500    -3.5350    -1.4050 h1         1 IRG       0.089700
     37 NAA         -4.4020     3.1830     0.1900 nv         1 IRG      -1.091000
@<TRIPOS>BOND
     1     1     2 ar  
     2     1     6 ar  
     3     2     3 ar  
     4     2    19 1   
     5     3     4 ar  
     6     4     5 ar  
     7     4    14 ar  
     8     5     6 ar  
     9     5    13 ar  
    10     6    17 1   
    11     7     8 ar  
    12     7     9 ar  
    13     7    23 1   
    14     8    10 ar  
    15     8    24 1   
    16     9    11 ar  
    17     9    25 1   
    18    10    19 ar  
    19    10    26 1   
    20    11    19 ar  
    21    11    27 1   
    22    12    13 ar  
    23    12    18 ar  
    24    12    28 1   
    25    13    29 1   
    26    14    18 ar  
    27    14    30 1   
    28    15    16 1   
    29    15    20 1   
    30    15    31 1   
    31    15    32 1   
    32    16    20 1   
    33    16    33 1   
    34    16    34 1   
    35    17    20 1   
    36    17    35 1   
    37    18    37 1   
    38    20    36 1   
    39    21    37 1   
    40    22    37 1   
@<TRIPOS>SUBSTRUCTURE
     1 IRG         1 TEMP              0 ****  ****    0 ROOT
