@<TRIPOS>MOLECULE
IRG
   37    40     1     0     0
SMALL
bcc


@<TRIPOS>ATOM
      1 N1           0.4560    -0.8650    -0.1970 nb         1 IRG      -0.819000
      2 C2           0.8430     0.4060    -0.0170 cp         1 IRG       0.776500
      3 N3           0.0660     1.4530     0.0900 nb         1 IRG      -0.756000
      4 C4          -1.2740     1.2340     0.0220 ca         1 IRG       0.502600
      5 C5          -1.8000    -0.0640    -0.1550 ca         1 IRG      -0.358600
      6 C6          -0.8370    -1.1190    -0.2640 ca         1 IRG       0.752200
      7 CAB          5.0670     1.0500     0.2140 ca         1 IRG      -0.113000
      8 CAC          4.1900     2.1250     0.3060 ca         1 IRG      -0.149000
      9 CAD          4.5640    -0.2330     0.0460 ca         1 IRG      -0.149000
     10 CAE          2.8220     1.9160     0.2320 ca         1 IRG      -0.084000
     11 CAF          3.1950    -0.4430    -0.0290 ca         1 IRG      -0.084000
     12 CAG         -4.0360     0.8490    -0.0930 ca         1 IRG      -0.208000
     13 CAH         -3.1980    -0.2240    -0.2060 ca         1 IRG      -0.046000
     14 CAI         -2.1420     2.3290     0.1330 ca         1 IRG      -0.286300
     15 CAJ         -0.7030    -4.7980    -0.0210 cx         1 IRG      -0.133400
     16 CAK          0.3860    -4.0110     0.6420 cx         1 IRG      -0.133400
     17 NAN         -1.2180    -2.3950    -0.4330 nu         1 IRG      -0.850900
     18 CAO         -3.5180     2.1600     0.0800 ca         1 IRG       0.201600
     19 CAP          2.3080     0.6300     0.0630 cp         1 IRG      -0.150500
     20 CAU         -0.2940    -3.4710    -0.5740 cx         1 IRG       0.177500
     21 HNAA        -5.3230     3.0880    -0.0860 hn         1 IRG       0.409800
     22 HNAB        -4.0150     4.1350     0.1020 hn         1 IRG       0.409800
     23 HAB          6.1360     1.2130     0.2710 ha         1 IRG       0.127000
     24 HAC          4.5740     3.1280     0.4380 ha         1 IRG       0.129000
     25 HAD          5.2410    -1.0750    -0.0260 ha         1 IRG       0.129000
     26 HAE          2.1420     2.7530     0.3050 ha         1 IRG       0.151500
     27 HAF          2.8040    -1.4430    -0.1580 ha         1 IRG       0.151500
     28 HAG         -5.1090     0.7040    -0.1320 ha         1 IRG       0.131000
     29 HAH         -3.6440    -1.2030    -0.3350 ha         1 IRG       0.120000
     30 HAI         -1.7140     3.3160     0.2670 ha         1 IRG       0.150000
     31 HAJ         -0.4410    -5.6820    -0.5870 hc         1 IRG       0.078200
     32 HAJA        -1.6590    -4.8550     0.4850 hc         1 IRG       0.078200
     33 HAK          0.1610    -3.5370     1.5890 hc         1 IRG       0.078200
     34 HAKA         1.4100    -4.3440     0.5360 hc         1 IRG       0.078200
     35 HNAN        -2.1870    -2.5940    -0.6170 hn         1 IRG       0.442800
     36 HAU          0.2810    -3.4720    -1.4950 h1         1 IRG       0.089700
     37 NAA         -4.3770     3.2060     0.2370 nv         1 IRG      -0.842200
@<TRIPOS>BOND
     1     1     2 ar  
     2     1     6 ar  
     3     2     3 ar  
     4     2    19 1   
     5     3     4 ar  
     6     4     5 ar  
     7     4    14 ar  
     8     5     6 ar  
     9     5    13 ar  
    10     6    17 1   
    11     7     8 ar  
    12     7     9 ar  
    13     7    23 1   
    14     8    10 ar  
    15     8    24 1   
    16     9    11 ar  
    17     9    25 1   
    18    10    19 ar  
    19    10    26 1   
    20    11    19 ar  
    21    11    27 1   
    22    12    13 ar  
    23    12    18 ar  
    24    12    28 1   
    25    13    29 1   
    26    14    18 ar  
    27    14    30 1   
    28    15    16 1   
    29    15    20 1   
    30    15    31 1   
    31    15    32 1   
    32    16    20 1   
    33    16    33 1   
    34    16    34 1   
    35    17    20 1   
    36    17    35 1   
    37    18    37 1   
    38    20    36 1   
    39    21    37 1   
    40    22    37 1   
@<TRIPOS>SUBSTRUCTURE
     1 IRG         1 TEMP              0 ****  ****    0 ROOT
