@<TRIPOS>MOLECULE
IRH
   35    37     1     0     0
SMALL
No Charge or Current Charge


@<TRIPOS>ATOM
      1 C01         -3.9460     2.6800    -1.6580 c3         1 IRH       0.156900
      2 O25         -4.5300     1.6650    -0.8190 os         1 IRH      -0.368100
      3 C16         -3.7710     0.6740    -0.2180 ca         1 IRH       0.035100
      4 C15         -2.3700     0.5850    -0.3850 ca         1 IRH      -0.120000
      5 C17         -4.4340    -0.2740     0.5870 ca         1 IRH       0.144100
      6 O24         -5.7850    -0.1920     0.7520 oh         1 IRH      -0.528100
      7 C18         -3.7120    -1.2940     1.2220 ca         1 IRH      -0.137000
      8 C19         -2.3190    -1.3790     1.0530 ca         1 IRH      -0.053000
      9 C14         -1.6380    -0.4470     0.2420 ca         1 IRH      -0.062800
     10 C11         -0.1810    -0.5160     0.0750 cc         1 IRH       0.154900
     11 O12          0.5110     0.6860     0.0790 os         1 IRH      -0.206200
     12 C4           1.8900     0.6130     0.1990 ca         1 IRH       0.256100
     13 C5           2.5540     1.8040     0.5240 ca         1 IRH      -0.308000
     14 C6           3.9480     1.8370     0.6200 ca         1 IRH       0.251100
     15 O29          4.5840     2.9930     0.9420 oh         1 IRH      -0.516100
     16 C1           4.6920     0.6830     0.3770 ca         1 IRH      -0.250000
     17 C2           4.0420    -0.5030     0.0370 ca         1 IRH       0.285100
     18 O30          4.7800    -1.6140    -0.2060 oh         1 IRH      -0.530100
     19 C3           2.6410    -0.5450    -0.0530 ca         1 IRH      -0.379600
     20 C9           1.9140    -1.7770    -0.4010 c          1 IRH       0.577900
     21 O13          2.5000    -2.8050    -0.7310 o          1 IRH      -0.616100
     22 C10          0.4470    -1.7020    -0.2790 cd         1 IRH      -0.062100
     23 O27         -0.1950    -2.8890    -0.5150 oh         1 IRH      -0.517100
     24 H1          -3.4480     2.2300    -2.5260 h1         1 IRH       0.043033
     25 H2          -4.7230     3.3610    -2.0280 h1         1 IRH       0.043033
     26 H3          -3.2120     3.2750    -1.0990 h1         1 IRH       0.043033
     27 H4          -1.8360     1.3030    -1.0010 ha         1 IRH       0.126000
     28 H5          -6.0800     0.5870     0.2280 ho         1 IRH       0.485000
     29 H6          -4.2300    -2.0170     1.8470 ha         1 IRH       0.136000
     30 H7          -1.7680    -2.1680     1.5600 ha         1 IRH       0.137000
     31 H8           1.9700     2.7030     0.7010 ha         1 IRH       0.137000
     32 H9           3.9020     3.6850     1.0730 ho         1 IRH       0.475000
     33 H10          5.7750     0.7090     0.4470 ha         1 IRH       0.154000
     34 H11          4.1220    -2.3110    -0.4600 ho         1 IRH       0.520000
     35 H12          0.5040    -3.5480    -0.7460 ho         1 IRH       0.490000
@<TRIPOS>BOND
     1     1     2 1   
     2     1    24 1   
     3     1    25 1   
     4     1    26 1   
     5     2     3 1   
     6     3     4 ar  
     7     3     5 ar  
     8     4     9 ar  
     9     4    27 1   
    10     5     6 1   
    11     5     7 ar  
    12     6    28 1   
    13     7     8 ar  
    14     7    29 1   
    15     8     9 ar  
    16     8    30 1   
    17     9    10 1   
    18    10    11 1   
    19    10    22 2   
    20    11    12 1   
    21    12    13 ar  
    22    12    19 ar  
    23    13    14 ar  
    24    13    31 1   
    25    14    15 1   
    26    14    16 ar  
    27    15    32 1   
    28    16    17 ar  
    29    16    33 1   
    30    17    18 1   
    31    17    19 ar  
    32    18    34 1   
    33    19    20 1   
    34    20    21 2   
    35    20    22 1   
    36    22    23 1   
    37    23    35 1   
@<TRIPOS>SUBSTRUCTURE
     1 IRH         1 TEMP              0 ****  ****    0 ROOT
