@<TRIPOS>MOLECULE
IRH
   35    37     1     0     0
SMALL
bcc


@<TRIPOS>ATOM
      1 C01         -3.5620     2.8900    -1.2230 c3         1 IRH       0.133700
      2 O25         -4.2910     1.8220    -0.6490 os         1 IRH      -0.344900
      3 C16         -3.6190     0.7380    -0.2130 ca         1 IRH       0.035100
      4 C15         -2.2490     0.5720    -0.2650 ca         1 IRH      -0.138000
      5 C17         -4.4320    -0.2740     0.3300 ca         1 IRH       0.144100
      6 O24         -5.7650    -0.1350     0.4020 oh         1 IRH      -0.489100
      7 C18         -3.8420    -1.4320     0.8050 ca         1 IRH      -0.155000
      8 C19         -2.4670    -1.6030     0.7470 ca         1 IRH      -0.071000
      9 C14         -1.6540    -0.6090     0.2100 ca         1 IRH      -0.062800
     10 C11         -0.2000    -0.7500     0.1530 cc         1 IRH       0.154900
     11 O12          0.4370     0.4400     0.2360 os         1 IRH      -0.206200
     12 C4           1.7710     0.5550     0.1830 ca         1 IRH       0.256100
     13 C5           2.3040     1.8300     0.2680 ca         1 IRH      -0.326000
     14 C6           3.6880     1.9580     0.2330 ca         1 IRH       0.251100
     15 O29          4.2880     3.1490     0.3160 oh         1 IRH      -0.477100
     16 C1           4.5260     0.8440     0.1060 ca         1 IRH      -0.268000
     17 C2           3.9770    -0.4190     0.0180 ca         1 IRH       0.285100
     18 O30          4.7780    -1.4740    -0.0970 oh         1 IRH      -0.491100
     19 C3           2.5690    -0.5840     0.0560 ca         1 IRH      -0.379600
     20 C9           1.9540    -1.8740    -0.0350 c          1 IRH       0.577900
     21 O13          2.5890    -2.9360    -0.1640 o          1 IRH      -0.616100
     22 C10          0.5080    -1.8990     0.0110 cd         1 IRH      -0.062100
     23 O27         -0.0910    -3.0940    -0.1130 oh         1 IRH      -0.478100
     24 H1          -3.0170     2.5730    -2.1160 h1         1 IRH       0.043033
     25 H2          -4.2910     3.6460    -1.5040 h1         1 IRH       0.043033
     26 H3          -2.8560     3.3260    -0.5110 h1         1 IRH       0.043033
     27 H4          -1.6330     1.3530    -0.6890 ha         1 IRH       0.144000
     28 H5          -6.0340     0.7190     0.0390 ho         1 IRH       0.446000
     29 H6          -4.4650    -2.2050     1.2360 ha         1 IRH       0.154000
     30 H7          -2.0440    -2.5100     1.1510 ha         1 IRH       0.155000
     31 H8           1.6550     2.6910     0.3690 ha         1 IRH       0.155000
     32 H9           3.6420     3.8520     0.4560 ho         1 IRH       0.436000
     33 H10          5.6010     0.9730     0.0830 ha         1 IRH       0.172000
     34 H11          4.2210    -2.2810    -0.1460 ho         1 IRH       0.481000
     35 H12          0.6020    -3.7590    -0.2430 ho         1 IRH       0.451000
@<TRIPOS>BOND
     1     1     2 1   
     2     1    24 1   
     3     1    25 1   
     4     1    26 1   
     5     2     3 1   
     6     3     4 ar  
     7     3     5 ar  
     8     4     9 ar  
     9     4    27 1   
    10     5     6 1   
    11     5     7 ar  
    12     6    28 1   
    13     7     8 ar  
    14     7    29 1   
    15     8     9 ar  
    16     8    30 1   
    17     9    10 1   
    18    10    11 1   
    19    10    22 2   
    20    11    12 1   
    21    12    13 ar  
    22    12    19 ar  
    23    13    14 ar  
    24    13    31 1   
    25    14    15 1   
    26    14    16 ar  
    27    15    32 1   
    28    16    17 ar  
    29    16    33 1   
    30    17    18 1   
    31    17    19 ar  
    32    18    34 1   
    33    19    20 1   
    34    20    21 2   
    35    20    22 1   
    36    22    23 1   
    37    23    35 1   
@<TRIPOS>SUBSTRUCTURE
     1 IRH         1 TEMP              0 ****  ****    0 ROOT
