@<TRIPOS>MOLECULE
IRJ
   27    28     1     0     0
SMALL
No Charge or Current Charge


@<TRIPOS>ATOM
      1 C10          3.6700     0.1330    21.8230 ca         1 IRJ      -0.104500
      2 C13          1.1170    -0.8680    21.2110 ca         1 IRJ      -0.114000
      3 C15          3.5240     1.4690    17.6120 ca         1 IRJ      -0.134500
      4 C16          3.4590     2.7310    16.9950 ca         1 IRJ      -0.088500
      5 C04          4.2190     3.8180    17.4880 ca         1 IRJ      -0.128600
      6 C05          5.0440     3.6020    18.6170 ca         1 IRJ      -0.088500
      7 C06          5.1070     2.3380    19.2310 ca         1 IRJ      -0.134500
      8 C07          4.3490     1.2640    18.7320 ca         1 IRJ      -0.119300
      9 C08          4.4150    -0.1030    19.4020 c3         1 IRJ       0.022200
     10 C09          3.3670    -0.2430    20.4990 ca         1 IRJ      -0.054300
     11 C11          2.7020     0.0070    22.8350 ca         1 IRJ      -0.114000
     12 C12          1.4260    -0.4940    22.5290 ca         1 IRJ      -0.125000
     13 C14          2.0850    -0.7420    20.1990 ca         1 IRJ      -0.104500
     14 O01          3.4220     5.3270    15.8490 o          1 IRJ      -0.721000
     15 O03          4.8240     6.0960    17.2820 o          1 IRJ      -0.721000
     16 H1           4.6550     0.5240    22.0670 ha         1 IRJ       0.110500
     17 H2           0.1290    -1.2540    20.9720 ha         1 IRJ       0.101500
     18 H3           2.9290     0.6500    17.2170 ha         1 IRJ       0.081500
     19 H4           2.8120     2.8610    16.1300 ha         1 IRJ       0.125500
     20 H5           5.6420     4.4150    19.0240 ha         1 IRJ       0.125500
     21 H6           5.7470     2.1970    20.0990 ha         1 IRJ       0.081500
     22 H7           4.2790    -0.8930    18.6530 hc         1 IRJ       0.039200
     23 H8           5.4160    -0.2680    19.8180 hc         1 IRJ       0.039200
     24 H9           2.9420     0.2980    23.8550 ha         1 IRJ       0.101500
     25 H10          0.6770    -0.5920    23.3120 ha         1 IRJ       0.099000
     26 H11          1.8370    -1.0300    19.1790 ha         1 IRJ       0.110500
     27 C02          4.1500     5.1850    16.8230 c          1 IRJ       0.713600
@<TRIPOS>BOND
     1     1    10 ar  
     2     1    11 ar  
     3     1    16 1   
     4     2    12 ar  
     5     2    13 ar  
     6     2    17 1   
     7     3     4 ar  
     8     3     8 ar  
     9     3    18 1   
    10     4     5 ar  
    11     4    19 1   
    12     5     6 ar  
    13     5    27 1   
    14     6     7 ar  
    15     6    20 1   
    16     7     8 ar  
    17     7    21 1   
    18     8     9 1   
    19     9    10 1   
    20     9    22 1   
    21     9    23 1   
    22    10    13 ar  
    23    11    12 ar  
    24    11    24 1   
    25    12    25 1   
    26    13    26 1   
    27    14    27 1   
    28    15    27 1   
@<TRIPOS>SUBSTRUCTURE
     1 IRJ         1 TEMP              0 ****  ****    0 ROOT
