@<TRIPOS>MOLECULE
IRJ
   27    28     1     0     0
SMALL
abcg2


@<TRIPOS>ATOM
      1 C10          3.6170     0.1990    21.7850 ca         1 IRJ      -0.104500
      2 C13          1.1550    -0.9120    21.1680 ca         1 IRJ      -0.114000
      3 C15          3.4750     1.5000    17.7090 ca         1 IRJ      -0.134500
      4 C16          3.4000     2.7500    17.1120 ca         1 IRJ      -0.088500
      5 C04          4.2130     3.8000    17.5340 ca         1 IRJ      -0.128600
      6 C05          5.1020     3.5550    18.5770 ca         1 IRJ      -0.088500
      7 C06          5.1790     2.3050    19.1760 ca         1 IRJ      -0.134500
      8 C07          4.3670     1.2580    18.7500 ca         1 IRJ      -0.119300
      9 C08          4.4310    -0.0950    19.4150 c3         1 IRJ       0.022200
     10 C09          3.3780    -0.2440    20.4860 ca         1 IRJ      -0.054300
     11 C11          2.6400     0.0880    22.7650 ca         1 IRJ      -0.114000
     12 C12          1.4040    -0.4670    22.4590 ca         1 IRJ      -0.125000
     13 C14          2.1360    -0.8010    20.1910 ca         1 IRJ      -0.104500
     14 O01          3.3000     5.2980    15.9530 o          1 IRJ      -0.721000
     15 O03          4.9230     6.0390    17.2940 o          1 IRJ      -0.721000
     16 H1           4.5800     0.6300    22.0350 ha         1 IRJ       0.110500
     17 H2           0.1970    -1.3510    20.9200 ha         1 IRJ       0.101500
     18 H3           2.8350     0.6990    17.3560 ha         1 IRJ       0.081500
     19 H4           2.7010     2.9110    16.3010 ha         1 IRJ       0.125500
     20 H5           5.7480     4.3510    18.9210 ha         1 IRJ       0.125500
     21 H6           5.8860     2.1400    19.9820 ha         1 IRJ       0.081500
     22 H7           4.2970    -0.8780    18.6650 hc         1 IRJ       0.039200
     23 H8           5.4200    -0.2390    19.8530 hc         1 IRJ       0.039200
     24 H9           2.8450     0.4330    23.7700 ha         1 IRJ       0.101500
     25 H10          0.6420    -0.5560    23.2230 ha         1 IRJ       0.099000
     26 H11          1.9360    -1.1580    19.1870 ha         1 IRJ       0.110500
     27 C02          4.1380     5.1700    16.8670 c          1 IRJ       0.713600
@<TRIPOS>BOND
     1     1    10 ar  
     2     1    11 ar  
     3     1    16 1   
     4     2    12 ar  
     5     2    13 ar  
     6     2    17 1   
     7     3     4 ar  
     8     3     8 ar  
     9     3    18 1   
    10     4     5 ar  
    11     4    19 1   
    12     5     6 ar  
    13     5    27 1   
    14     6     7 ar  
    15     6    20 1   
    16     7     8 ar  
    17     7    21 1   
    18     8     9 1   
    19     9    10 1   
    20     9    22 1   
    21     9    23 1   
    22    10    13 ar  
    23    11    12 ar  
    24    11    24 1   
    25    12    25 1   
    26    13    26 1   
    27    14    27 1   
    28    15    27 1   
@<TRIPOS>SUBSTRUCTURE
     1 IRJ         1 TEMP              0 ****  ****    0 ROOT
