@<TRIPOS>MOLECULE
IRL
   77    81     1     0     0
SMALL
No Charge or Current Charge


@<TRIPOS>ATOM
      1 C1           3.5880     4.0810     1.1140 ca         1 IRL      -0.088300
      2 C2           2.4660     3.8210     0.3040 ca         1 IRL      -0.077500
      3 C3           1.9430     2.5150     0.1980 ca         1 IRL      -0.124600
      4 C4           2.5890     1.4620     0.8850 ca         1 IRL      -0.077500
      5 C5           3.7140     1.7120     1.6910 ca         1 IRL      -0.088300
      6 C6           4.2040     3.0240     1.8090 ca         1 IRL      -0.106000
      7 C7           4.1310     5.4970     1.2350 c3         1 IRL      -0.042800
      8 C8           4.4100     0.5700     2.4170 c3         1 IRL      -0.042800
      9 C9           0.7630     2.2450    -0.7100 c          1 IRL       0.621700
     10 N10         -0.1140     1.1960    -0.3550 n          1 IRL      -0.377800
     11 C11         -0.9880     0.5530    -1.3880 c3         1 IRL       0.016700
     12 C12         -0.9380    -1.0010    -1.2690 c3         1 IRL      -0.051100
     13 C13          0.4700    -1.5180    -0.9730 ca         1 IRL      -0.053300
     14 C14          0.7200    -2.2580     0.1980 ca         1 IRL      -0.110500
     15 C15          2.0300    -2.6410     0.5310 ca         1 IRL      -0.100500
     16 C16          3.1270    -2.2970    -0.2970 cp         1 IRL      -0.056000
     17 C17          2.8550    -1.5780    -1.4870 ca         1 IRL      -0.100500
     18 C18          1.5450    -1.1970    -1.8230 ca         1 IRL      -0.110500
     19 C19          4.5280    -2.6590     0.0860 cp         1 IRL      -0.022000
     20 C20          5.6080    -1.7820    -0.1880 ca         1 IRL      -0.103500
     21 C21          6.9230    -2.1110     0.1830 ca         1 IRL      -0.114000
     22 C22          7.1860    -3.3260     0.8360 ca         1 IRL      -0.117000
     23 C23          6.1320    -4.2100     1.1190 ca         1 IRL      -0.114000
     24 C24          4.8170    -3.8780     0.7490 ca         1 IRL      -0.103500
     25 C25         -0.4780     0.9810     1.0700 c3         1 IRL       0.092300
     26 O26          0.6400     2.8450    -1.7730 o          1 IRL      -0.599100
     27 C27         -2.4400     1.1170    -1.4380 c          1 IRL       0.591100
     28 O28         -2.7790     2.1370    -0.8460 o          1 IRL      -0.621100
     29 N29         -3.3410     0.3870    -2.1920 ns         1 IRL      -0.444900
     30 C30         -4.8150     0.5570    -2.1460 c3         1 IRL      -0.034300
     31 C31         -5.3970     0.8120    -3.5680 c          1 IRL       0.718000
     32 C32         -5.5050    -0.6510    -1.4550 c3         1 IRL      -0.022200
     33 C33         -4.7750    -1.1920    -0.2470 cc         1 IRL      -0.094400
     34 C34         -4.2430    -2.4710    -0.1040 cd         1 IRL      -0.201100
     35 N35         -3.5990    -2.5870     1.1510 na         1 IRL      -0.240700
     36 C36         -3.7440    -1.3580     1.7650 ca         1 IRL      -0.056200
     37 C37         -4.4520    -0.4990     0.9710 ca         1 IRL      -0.097800
     38 C38         -3.2610    -0.9690     3.0220 ca         1 IRL      -0.155000
     39 C39         -3.5300     0.3440     3.4600 ca         1 IRL      -0.097000
     40 C40         -4.2700     1.2300     2.6440 ca         1 IRL      -0.160000
     41 C41         -4.7430     0.8110     1.3820 ca         1 IRL      -0.025000
     42 O42         -5.0790     0.0540    -4.4760 o          1 IRL      -0.719000
     43 O43         -6.0910     1.8050    -3.7370 o          1 IRL      -0.719000
     44 H1           1.9920     4.6370    -0.2380 ha         1 IRL       0.128000
     45 H2           2.2390     0.4400     0.7670 ha         1 IRL       0.128000
     46 H3           5.0730     3.2200     2.4330 ha         1 IRL       0.101000
     47 H4           3.6340     6.0370     2.0500 hc         1 IRL       0.038700
     48 H5           5.2080     5.4960     1.4410 hc         1 IRL       0.038700
     49 H6           3.9740     6.0660     0.3110 hc         1 IRL       0.038700
     50 H7           5.4310     0.4340     2.0420 hc         1 IRL       0.038700
     51 H8           4.4720     0.7700     3.4930 hc         1 IRL       0.038700
     52 H9           3.8800    -0.3810     2.2860 hc         1 IRL       0.038700
     53 H10         -0.5720     0.7890    -2.3750 h1         1 IRL       0.100700
     54 H11         -1.6230    -1.3100    -0.4720 hc         1 IRL       0.063700
     55 H12         -1.3110    -1.4600    -2.1930 hc         1 IRL       0.063700
     56 H13         -0.0970    -2.5080     0.8710 ha         1 IRL       0.120000
     57 H14          2.1980    -3.1820     1.4590 ha         1 IRL       0.110000
     58 H15          3.6680    -1.3080    -2.1560 ha         1 IRL       0.110000
     59 H16          1.3720    -0.6280    -2.7330 ha         1 IRL       0.120000
     60 H17          5.4230    -0.8290    -0.6770 ha         1 IRL       0.117500
     61 H18          7.7370    -1.4230    -0.0320 ha         1 IRL       0.108500
     62 H19          8.2040    -3.5810     1.1240 ha         1 IRL       0.106000
     63 H20          6.3340    -5.1520     1.6230 ha         1 IRL       0.108500
     64 H21          4.0160    -4.5800     0.9680 ha         1 IRL       0.117500
     65 H22         -0.3020     1.8970     1.6490 h1         1 IRL       0.043033
     66 H23         -1.5390     0.7150     1.1580 h1         1 IRL       0.043033
     67 H24          0.1200     0.1660     1.4940 h1         1 IRL       0.043033
     68 H25         -2.9770    -0.4160    -2.6900 hn         1 IRL       0.300500
     69 H26         -5.0410     1.4510    -1.5550 h1         1 IRL       0.068700
     70 H27         -6.5260    -0.3650    -1.1760 hc         1 IRL       0.057200
     71 H28         -5.6080    -1.4600    -2.1880 hc         1 IRL       0.057200
     72 H29         -4.2700    -3.2990    -0.8080 h4         1 IRL       0.207000
     73 H30         -3.1300    -3.4050     1.5280 hn         1 IRL       0.336000
     74 H31         -2.6960    -1.6590     3.6430 ha         1 IRL       0.099000
     75 H32         -3.1670     0.6760     4.4310 ha         1 IRL       0.097000
     76 H33         -4.4750     2.2410     2.9880 ha         1 IRL       0.108000
     77 H34         -5.3100     1.4870     0.7470 ha         1 IRL       0.136000
@<TRIPOS>BOND
     1     1     2 ar  
     2     1     6 ar  
     3     1     7 1   
     4     2     3 ar  
     5     2    44 1   
     6     3     4 ar  
     7     3     9 1   
     8     4     5 ar  
     9     4    45 1   
    10     5     6 ar  
    11     5     8 1   
    12     6    46 1   
    13     7    47 1   
    14     7    48 1   
    15     7    49 1   
    16     8    50 1   
    17     8    51 1   
    18     8    52 1   
    19     9    10 1   
    20     9    26 2   
    21    10    11 1   
    22    10    25 1   
    23    11    12 1   
    24    11    27 1   
    25    11    53 1   
    26    12    13 1   
    27    12    54 1   
    28    12    55 1   
    29    13    14 ar  
    30    13    18 ar  
    31    14    15 ar  
    32    14    56 1   
    33    15    16 ar  
    34    15    57 1   
    35    16    17 ar  
    36    16    19 1   
    37    17    18 ar  
    38    17    58 1   
    39    18    59 1   
    40    19    20 ar  
    41    19    24 ar  
    42    20    21 ar  
    43    20    60 1   
    44    21    22 ar  
    45    21    61 1   
    46    22    23 ar  
    47    22    62 1   
    48    23    24 ar  
    49    23    63 1   
    50    24    64 1   
    51    25    65 1   
    52    25    66 1   
    53    25    67 1   
    54    27    28 2   
    55    27    29 1   
    56    29    30 1   
    57    29    68 1   
    58    30    31 1   
    59    30    32 1   
    60    30    69 1   
    61    31    42 1   
    62    31    43 1   
    63    32    33 1   
    64    32    70 1   
    65    32    71 1   
    66    33    34 2   
    67    33    37 1   
    68    34    35 1   
    69    34    72 1   
    70    35    36 1   
    71    35    73 1   
    72    36    37 ar  
    73    36    38 ar  
    74    37    41 ar  
    75    38    39 ar  
    76    38    74 1   
    77    39    40 ar  
    78    39    75 1   
    79    40    41 ar  
    80    40    76 1   
    81    41    77 1   
@<TRIPOS>SUBSTRUCTURE
     1 IRL         1 TEMP              0 ****  ****    0 ROOT
