@<TRIPOS>MOLECULE
IRL
   77    81     1     0     0
SMALL
abcg2


@<TRIPOS>ATOM
      1 C1           3.2940     4.0330     1.1880 ca         1 IRL      -0.088300
      2 C2           2.2880     3.6850     0.2970 ca         1 IRL      -0.077500
      3 C3           1.8970     2.3560     0.1580 ca         1 IRL      -0.124600
      4 C4           2.5360     1.3630     0.8860 ca         1 IRL      -0.077500
      5 C5           3.5680     1.6830     1.7660 ca         1 IRL      -0.088300
      6 C6           3.9250     3.0180     1.9100 ca         1 IRL      -0.106000
      7 C7           3.7090     5.4640     1.3710 c3         1 IRL      -0.042800
      8 C8           4.2800     0.5980     2.5200 c3         1 IRL      -0.042800
      9 C9           0.8890     1.9800    -0.8810 c          1 IRL       0.621700
     10 N10         -0.1490     1.2140    -0.4840 n          1 IRL      -0.377800
     11 C11         -0.9330     0.5170    -1.4770 c3         1 IRL       0.016700
     12 C12         -0.9020    -1.0020    -1.2150 c3         1 IRL      -0.051100
     13 C13          0.4890    -1.4880    -0.9140 ca         1 IRL      -0.053300
     14 C14          0.7750    -2.1320     0.2860 ca         1 IRL      -0.110500
     15 C15          2.0670    -2.5290     0.5990 ca         1 IRL      -0.100500
     16 C16          3.1210    -2.2940    -0.2830 cp         1 IRL      -0.056000
     17 C17          2.8280    -1.6740    -1.4990 ca         1 IRL      -0.100500
     18 C18          1.5370    -1.2830    -1.8090 ca         1 IRL      -0.110500
     19 C19          4.5040    -2.6710     0.0670 cp         1 IRL      -0.022000
     20 C20          5.5760    -1.8490    -0.2850 ca         1 IRL      -0.103500
     21 C21          6.8770    -2.1930     0.0500 ca         1 IRL      -0.114000
     22 C22          7.1320    -3.3690     0.7430 ca         1 IRL      -0.117000
     23 C23          6.0750    -4.1960     1.0990 ca         1 IRL      -0.114000
     24 C24          4.7740    -3.8500     0.7640 ca         1 IRL      -0.103500
     25 C25         -0.5350     1.0500     0.9070 c3         1 IRL       0.092300
     26 O26          1.0650     2.3250    -2.0420 o          1 IRL      -0.599100
     27 C27         -2.3450     1.1150    -1.5510 c          1 IRL       0.591100
     28 O28         -2.5680     2.2320    -1.1070 o          1 IRL      -0.621100
     29 N29         -3.2670     0.3480    -2.1400 ns         1 IRL      -0.444900
     30 C30         -4.6840     0.6120    -2.1060 c3         1 IRL      -0.034300
     31 C31         -5.2910     0.8910    -3.4990 c          1 IRL       0.718000
     32 C32         -5.4250    -0.5640    -1.4270 c3         1 IRL      -0.022200
     33 C33         -4.7080    -1.1030    -0.2340 cc         1 IRL      -0.094400
     34 C34         -4.2040    -2.3660    -0.1020 cd         1 IRL      -0.201100
     35 N35         -3.5360    -2.4930     1.0860 na         1 IRL      -0.240700
     36 C36         -3.5870    -1.3060     1.7560 ca         1 IRL      -0.056200
     37 C37         -4.3230    -0.4010     0.9570 ca         1 IRL      -0.097800
     38 C38         -3.0520    -0.9430     2.9920 ca         1 IRL      -0.155000
     39 C39         -3.2670     0.3510     3.4240 ca         1 IRL      -0.097000
     40 C40         -4.0000     1.2660     2.6500 ca         1 IRL      -0.160000
     41 C41         -4.5260     0.9020     1.4260 ca         1 IRL      -0.025000
     42 O42         -4.5410     0.8130    -4.4860 o          1 IRL      -0.719000
     43 O43         -6.5080     1.1640    -3.4920 o          1 IRL      -0.719000
     44 H1           1.7970     4.4550    -0.2870 ha         1 IRL       0.128000
     45 H2           2.2510     0.3250     0.7550 ha         1 IRL       0.128000
     46 H3           4.7230     3.2770     2.5980 ha         1 IRL       0.101000
     47 H4           3.4940     5.8110     2.3830 hc         1 IRL       0.038700
     48 H5           4.7820     5.5870     1.2120 hc         1 IRL       0.038700
     49 H6           3.1920     6.1230     0.6760 hc         1 IRL       0.038700
     50 H7           4.8460    -0.0430     1.8410 hc         1 IRL       0.038700
     51 H8           4.9750     1.0080     3.2500 hc         1 IRL       0.038700
     52 H9           3.5760    -0.0470     3.0480 hc         1 IRL       0.038700
     53 H10         -0.4700     0.7090    -2.4470 h1         1 IRL       0.100700
     54 H11         -1.5770    -1.2620    -0.3980 hc         1 IRL       0.063700
     55 H12         -1.2780    -1.5230    -2.1000 hc         1 IRL       0.063700
     56 H13         -0.0190    -2.3120     1.0020 ha         1 IRL       0.120000
     57 H14          2.2570    -2.9980     1.5560 ha         1 IRL       0.110000
     58 H15          3.6170    -1.5030    -2.2220 ha         1 IRL       0.110000
     59 H16          1.3500    -0.8040    -2.7630 ha         1 IRL       0.120000
     60 H17          5.3900    -0.9180    -0.8080 ha         1 IRL       0.117500
     61 H18          7.6930    -1.5370    -0.2260 ha         1 IRL       0.108500
     62 H19          8.1470    -3.6400     1.0040 ha         1 IRL       0.106000
     63 H20          6.2630    -5.1170     1.6350 ha         1 IRL       0.108500
     64 H21          3.9610    -4.5140     1.0330 ha         1 IRL       0.117500
     65 H22         -0.2140     1.9070     1.4930 h1         1 IRL       0.043033
     66 H23         -1.6190     0.9940     0.9850 h1         1 IRL       0.043033
     67 H24         -0.1170     0.1490     1.3590 h1         1 IRL       0.043033
     68 H25         -2.9840    -0.5360    -2.5300 hn         1 IRL       0.300500
     69 H26         -4.8210     1.5030    -1.4940 h1         1 IRL       0.068700
     70 H27         -6.4280    -0.2180    -1.1670 hc         1 IRL       0.057200
     71 H28         -5.5570    -1.3750    -2.1490 hc         1 IRL       0.057200
     72 H29         -4.2630    -3.1970    -0.7890 h4         1 IRL       0.207000
     73 H30         -3.1010    -3.3370     1.4160 hn         1 IRL       0.336000
     74 H31         -2.4840    -1.6470     3.5870 ha         1 IRL       0.099000
     75 H32         -2.8620     0.6660     4.3770 ha         1 IRL       0.097000
     76 H33         -4.1500     2.2720     3.0200 ha         1 IRL       0.108000
     77 H34         -5.0890     1.6180     0.8410 ha         1 IRL       0.136000
@<TRIPOS>BOND
     1     1     2 ar  
     2     1     6 ar  
     3     1     7 1   
     4     2     3 ar  
     5     2    44 1   
     6     3     4 ar  
     7     3     9 1   
     8     4     5 ar  
     9     4    45 1   
    10     5     6 ar  
    11     5     8 1   
    12     6    46 1   
    13     7    47 1   
    14     7    48 1   
    15     7    49 1   
    16     8    50 1   
    17     8    51 1   
    18     8    52 1   
    19     9    10 1   
    20     9    26 2   
    21    10    11 1   
    22    10    25 1   
    23    11    12 1   
    24    11    27 1   
    25    11    53 1   
    26    12    13 1   
    27    12    54 1   
    28    12    55 1   
    29    13    14 ar  
    30    13    18 ar  
    31    14    15 ar  
    32    14    56 1   
    33    15    16 ar  
    34    15    57 1   
    35    16    17 ar  
    36    16    19 1   
    37    17    18 ar  
    38    17    58 1   
    39    18    59 1   
    40    19    20 ar  
    41    19    24 ar  
    42    20    21 ar  
    43    20    60 1   
    44    21    22 ar  
    45    21    61 1   
    46    22    23 ar  
    47    22    62 1   
    48    23    24 ar  
    49    23    63 1   
    50    24    64 1   
    51    25    65 1   
    52    25    66 1   
    53    25    67 1   
    54    27    28 2   
    55    27    29 1   
    56    29    30 1   
    57    29    68 1   
    58    30    31 1   
    59    30    32 1   
    60    30    69 1   
    61    31    42 1   
    62    31    43 1   
    63    32    33 1   
    64    32    70 1   
    65    32    71 1   
    66    33    34 2   
    67    33    37 1   
    68    34    35 1   
    69    34    72 1   
    70    35    36 1   
    71    35    73 1   
    72    36    37 ar  
    73    36    38 ar  
    74    37    41 ar  
    75    38    39 ar  
    76    38    74 1   
    77    39    40 ar  
    78    39    75 1   
    79    40    41 ar  
    80    40    76 1   
    81    41    77 1   
@<TRIPOS>SUBSTRUCTURE
     1 IRL         1 TEMP              0 ****  ****    0 ROOT
