@<TRIPOS>MOLECULE
IRM
   99    98     1     0     0
SMALL
abcg2


@<TRIPOS>ATOM
      1 C1          65.3970    70.4510    66.3740 c3         1 IRM       0.184000
      2 C10         68.1510    73.2330    76.1730 ce         1 IRM      -0.179000
      3 C11         68.1700    73.3230    77.6050 ce         1 IRM      -0.170000
      4 C12         68.1000    74.5040    78.2610 cf         1 IRM      -0.175000
      5 C13         68.1020    74.6740    79.6950 cf         1 IRM      -0.063200
      6 C14         68.0210    75.9380    80.1900 ce         1 IRM      -0.176000
      7 C15         67.9900    76.3350    81.5650 ce         1 IRM      -0.172000
      8 C16         67.9160    77.6320    81.9530 cf         1 IRM      -0.170000
      9 C17         67.8620    78.0340    83.3250 cf         1 IRM      -0.178000
     10 C18         67.7790    79.3030    83.8100 ce         1 IRM      -0.061200
     11 C19         67.7030    79.4830    85.2400 ce         1 IRM      -0.177000
     12 C2          66.6800    70.8280    67.1320 c3         1 IRM      -0.104400
     13 C20         67.5930    80.6710    85.8800 cf         1 IRM      -0.169000
     14 C21         67.4820    80.7760    87.3060 cf         1 IRM      -0.181000
     15 C22         67.3280    81.9100    88.0370 ce         1 IRM      -0.059200
     16 C23         67.1910    81.7870    89.4740 ce         1 IRM      -0.182000
     17 C24         66.9860    82.8060    90.3340 cf         1 IRM      -0.165000
     18 C25         66.8180    82.6170    91.7550 cf         1 IRM      -0.193000
     19 C26         66.5810    83.5730    92.6730 c2         1 IRM      -0.094400
     20 C27         66.4010    83.2050    94.1190 c3         1 IRM      -0.041200
     21 C28         67.4400    83.8420    95.0560 c3         1 IRM      -0.034200
     22 C29         67.1360    83.5410    96.4900 c2         1 IRM      -0.226200
     23 C3          66.7470    70.4150    68.5970 c3         1 IRM      -0.069400
     24 C30         65.1690    68.9400    66.3860 c3         1 IRM      -0.100100
     25 C31         64.1830    71.1690    66.9500 c3         1 IRM      -0.100100
     26 C33         68.2670    69.0240    70.9700 c3         1 IRM      -0.056900
     27 C34         68.3170    70.7240    75.9890 c3         1 IRM      -0.055900
     28 C35         68.1940    73.4480    80.5540 c3         1 IRM      -0.055900
     29 C36         67.7490    80.5240    82.9400 c3         1 IRM      -0.055900
     30 C37         67.2700    83.2850    87.4400 c3         1 IRM      -0.055900
     31 C38         66.4730    85.0350    92.3600 c3         1 IRM      -0.057900
     32 C39         67.8920    82.9000    97.3860 c2         1 IRM      -0.110400
     33 C4          68.0490    70.8830    69.2540 c3         1 IRM      -0.044200
     34 C40         67.4060    82.6890    98.7910 c3         1 IRM      -0.056400
     35 C41         69.2600    82.3470    97.1170 c3         1 IRM      -0.056400
     36 C5          68.1590    70.4940    70.7010 c2         1 IRM      -0.096400
     37 C6          68.1410    71.4410    71.6580 ce         1 IRM      -0.190000
     38 C7          68.2040    71.2330    73.0860 ce         1 IRM      -0.167000
     39 C8          68.1670    72.2450    73.9770 cf         1 IRM      -0.179000
     40 C9          68.2120    72.1060    75.4170 cf         1 IRM      -0.061200
     41 O32         65.5110    70.9100    65.0300 oh         1 IRM      -0.661000
     42 H1          68.0760    74.1800    75.6440 ha         1 IRM       0.169000
     43 H2          68.2410    72.4060    78.1770 ha         1 IRM       0.173000
     44 H3          68.0290    75.4150    77.6710 ha         1 IRM       0.170000
     45 H4          67.9680    76.7490    79.4680 ha         1 IRM       0.169000
     46 H5          68.0190    75.5710    82.3350 ha         1 IRM       0.172000
     47 H6          67.8890    78.3940    81.1810 ha         1 IRM       0.172000
     48 H7          67.8810    77.2260    84.0530 ha         1 IRM       0.169000
     49 H8          67.7220    78.5760    85.8400 ha         1 IRM       0.170000
     50 H9          67.5330    70.3780    66.6070 hc         1 IRM       0.043200
     51 H10         66.8110    71.9130    67.0580 hc         1 IRM       0.043200
     52 H11         67.5730    81.5820    85.2940 ha         1 IRM       0.173000
     53 H12         67.5070    79.8350    87.8510 ha         1 IRM       0.169000
     54 H13         67.2440    80.7770    89.8740 ha         1 IRM       0.170000
     55 H14         66.9310    83.8180    89.9480 ha         1 IRM       0.171000
     56 H15         66.8790    81.5890    92.1050 ha         1 IRM       0.170000
     57 H16         65.4040    83.5270    94.4430 hc         1 IRM       0.047700
     58 H17         66.4330    82.1200    94.2360 hc         1 IRM       0.047700
     59 H18         68.4380    83.5050    94.7700 hc         1 IRM       0.046700
     60 H19         67.4290    84.9280    94.9190 hc         1 IRM       0.046700
     61 H20         66.1600    83.8910    96.8230 ha         1 IRM       0.163000
     62 H21         65.9030    70.8340    69.1530 hc         1 IRM       0.043200
     63 H22         66.6640    69.3280    68.6810 hc         1 IRM       0.043200
     64 H23         64.9960    68.5640    67.3940 hc         1 IRM       0.041533
     65 H24         64.2970    68.6800    65.7830 hc         1 IRM       0.041533
     66 H25         66.0330    68.4080    65.9790 hc         1 IRM       0.041533
     67 H26         63.9850    70.8460    67.9710 hc         1 IRM       0.041533
     68 H27         64.3320    72.2500    66.9630 hc         1 IRM       0.041533
     69 H28         63.2920    70.9540    66.3590 hc         1 IRM       0.041533
     70 H29         68.5280    68.7860    71.9990 hc         1 IRM       0.040700
     71 H30         67.3270    68.5130    70.7450 hc         1 IRM       0.040700
     72 H31         69.0230    68.5750    70.3220 hc         1 IRM       0.040700
     73 H32         68.3420    70.7090    77.0750 hc         1 IRM       0.042033
     74 H33         67.4720    70.1090    75.6720 hc         1 IRM       0.042033
     75 H34         69.2200    70.2230    75.6330 hc         1 IRM       0.042033
     76 H35         68.1990    73.6720    81.6180 hc         1 IRM       0.042033
     77 H36         67.3570    72.7730    80.3640 hc         1 IRM       0.042033
     78 H37         69.1050    72.8880    80.3340 hc         1 IRM       0.042033
     79 H38         66.8370    81.1000    83.1060 hc         1 IRM       0.042367
     80 H39         68.5850    81.1870    83.1700 hc         1 IRM       0.042367
     81 H40         67.7990    80.2930    81.8790 hc         1 IRM       0.042367
     82 H41         68.0470    83.9240    87.8640 hc         1 IRM       0.042033
     83 H42         67.3970    83.2890    86.3610 hc         1 IRM       0.042033
     84 H43         66.3140    83.7640    87.6610 hc         1 IRM       0.042033
     85 H44         65.6370    85.4790    92.9040 hc         1 IRM       0.041367
     86 H45         67.3700    85.5710    92.6790 hc         1 IRM       0.041367
     87 H46         66.3310    85.2430    91.3020 hc         1 IRM       0.041367
     88 H47         68.8930    70.4560    68.7000 hc         1 IRM       0.045200
     89 H48         68.1270    71.9690    69.1560 hc         1 IRM       0.045200
     90 H49         67.3700    81.6240    99.0360 hc         1 IRM       0.038867
     91 H50         68.0860    83.1480    99.5130 hc         1 IRM       0.038867
     92 H51         66.4120    83.1060    98.9500 hc         1 IRM       0.038867
     93 H52         69.9960    82.8080    97.7800 hc         1 IRM       0.038867
     94 H53         69.2870    81.2750    97.3290 hc         1 IRM       0.038867
     95 H54         69.5990    82.4920    96.0940 hc         1 IRM       0.038867
     96 H55         68.0640    72.4770    71.3370 ha         1 IRM       0.169000
     97 H56         68.2750    70.2140    73.4490 ha         1 IRM       0.172000
     98 H57         68.0920    73.2620    73.5970 ha         1 IRM       0.170000
     99 H58         66.2670    70.4690    64.6270 ho         1 IRM       0.438000
@<TRIPOS>BOND
     1     1    12 1   
     2     1    24 1   
     3     1    25 1   
     4     1    41 1   
     5     2     3 1   
     6     2    40 2   
     7     2    42 1   
     8     3     4 2   
     9     3    43 1   
    10     4     5 1   
    11     4    44 1   
    12     5     6 2   
    13     5    28 1   
    14     6     7 1   
    15     6    45 1   
    16     7     8 2   
    17     7    46 1   
    18     8     9 1   
    19     8    47 1   
    20     9    10 2   
    21     9    48 1   
    22    10    11 1   
    23    10    29 1   
    24    11    13 2   
    25    11    49 1   
    26    12    23 1   
    27    12    50 1   
    28    12    51 1   
    29    13    14 1   
    30    13    52 1   
    31    14    15 2   
    32    14    53 1   
    33    15    16 1   
    34    15    30 1   
    35    16    17 2   
    36    16    54 1   
    37    17    18 1   
    38    17    55 1   
    39    18    19 2   
    40    18    56 1   
    41    19    20 1   
    42    19    31 1   
    43    20    21 1   
    44    20    57 1   
    45    20    58 1   
    46    21    22 1   
    47    21    59 1   
    48    21    60 1   
    49    22    32 2   
    50    22    61 1   
    51    23    33 1   
    52    23    62 1   
    53    23    63 1   
    54    24    64 1   
    55    24    65 1   
    56    24    66 1   
    57    25    67 1   
    58    25    68 1   
    59    25    69 1   
    60    26    36 1   
    61    26    70 1   
    62    26    71 1   
    63    26    72 1   
    64    27    40 1   
    65    27    73 1   
    66    27    74 1   
    67    27    75 1   
    68    28    76 1   
    69    28    77 1   
    70    28    78 1   
    71    29    79 1   
    72    29    80 1   
    73    29    81 1   
    74    30    82 1   
    75    30    83 1   
    76    30    84 1   
    77    31    85 1   
    78    31    86 1   
    79    31    87 1   
    80    32    34 1   
    81    32    35 1   
    82    33    36 1   
    83    33    88 1   
    84    33    89 1   
    85    34    90 1   
    86    34    91 1   
    87    34    92 1   
    88    35    93 1   
    89    35    94 1   
    90    35    95 1   
    91    36    37 2   
    92    37    38 1   
    93    37    96 1   
    94    38    39 2   
    95    38    97 1   
    96    39    40 1   
    97    39    98 1   
    98    41    99 1   
@<TRIPOS>SUBSTRUCTURE
     1 IRM         1 TEMP              0 ****  ****    0 ROOT
