@<TRIPOS>MOLECULE
IRM
   99    98     1     0     0
SMALL
No Charge or Current Charge


@<TRIPOS>ATOM
      1 C1          65.3500    70.7680    66.3440 c3         1 IRM       0.184000
      2 C10         68.4470    73.1070    76.1200 ce         1 IRM      -0.179000
      3 C11         68.4110    73.2380    77.5860 ce         1 IRM      -0.170000
      4 C12         68.4640    74.4330    78.2420 cf         1 IRM      -0.175000
      5 C13         68.4190    74.6540    79.6910 cf         1 IRM      -0.063200
      6 C14         68.2230    75.9150    80.1800 ce         1 IRM      -0.176000
      7 C15         68.1490    76.3230    81.5930 ce         1 IRM      -0.172000
      8 C16         68.0110    77.6110    82.0070 cf         1 IRM      -0.170000
      9 C17         67.9230    78.0160    83.4090 cf         1 IRM      -0.178000
     10 C18         67.8420    79.2880    83.9010 ce         1 IRM      -0.061200
     11 C19         67.7600    79.5080    85.3600 ce         1 IRM      -0.177000
     12 C2          66.7410    70.7220    67.0450 c3         1 IRM      -0.104400
     13 C20         67.4430    80.6670    86.0040 cf         1 IRM      -0.169000
     14 C21         67.3680    80.7970    87.4580 cf         1 IRM      -0.181000
     15 C22         67.1160    81.9300    88.1780 ce         1 IRM      -0.059200
     16 C23         67.0780    81.8700    89.6540 ce         1 IRM      -0.182000
     17 C24         66.6190    82.8280    90.5080 cf         1 IRM      -0.165000
     18 C25         66.6130    82.6870    91.9620 cf         1 IRM      -0.193000
     19 C26         66.1360    83.5970    92.8470 c2         1 IRM      -0.094400
     20 C27         66.2120    83.3790    94.3520 c3         1 IRM      -0.041200
     21 C28         67.3460    84.1870    95.0160 c3         1 IRM      -0.034200
     22 C29         67.4440    83.9220    96.5080 c2         1 IRM      -0.226200
     23 C3          66.7280    70.4300    68.5690 c3         1 IRM      -0.069400
     24 C30         64.6160    69.4070    66.4120 c3         1 IRM      -0.100100
     25 C31         64.4540    71.9010    66.8990 c3         1 IRM      -0.100100
     26 C33         67.8290    68.6970    71.0510 c3         1 IRM      -0.056900
     27 C34         68.5040    70.5700    76.0430 c3         1 IRM      -0.055900
     28 C35         68.6660    73.4500    80.5970 c3         1 IRM      -0.055900
     29 C36         67.9020    80.5270    83.0100 c3         1 IRM      -0.055900
     30 C37         66.9340    83.3010    87.5290 c3         1 IRM      -0.055900
     31 C38         65.5220    84.9360    92.4580 c3         1 IRM      -0.057900
     32 C39         68.1480    82.9540    97.1240 c2         1 IRM      -0.110400
     33 C4          68.1440    70.3990    69.1870 c3         1 IRM      -0.044200
     34 C40         68.1840    82.8120    98.6350 c3         1 IRM      -0.056400
     35 C41         68.9800    81.8890    96.4250 c3         1 IRM      -0.056400
     36 C5          68.1230    70.1480    70.6880 c2         1 IRM      -0.096400
     37 C6          68.3140    71.1410    71.5880 ce         1 IRM      -0.190000
     38 C7          68.2700    70.9900    73.0510 ce         1 IRM      -0.167000
     39 C8          68.4940    72.0120    73.9260 cf         1 IRM      -0.179000
     40 C9          68.4580    71.9510    75.3910 cf         1 IRM      -0.061200
     41 O32         65.5820    71.0550    64.9650 oh         1 IRM      -0.661000
     42 H1          68.4500    74.0490    75.5690 ha         1 IRM       0.169000
     43 H2          68.3120    72.3220    78.1660 ha         1 IRM       0.173000
     44 H3          68.5290    75.3320    77.6260 ha         1 IRM       0.170000
     45 H4          68.0880    76.7210    79.4560 ha         1 IRM       0.169000
     46 H5          68.1970    75.5420    82.3530 ha         1 IRM       0.172000
     47 H6          67.9520    78.3870    81.2430 ha         1 IRM       0.172000
     48 H7          67.9050    77.1980    84.1320 ha         1 IRM       0.169000
     49 H8          67.9590    78.6320    85.9800 ha         1 IRM       0.170000
     50 H9          67.3610    69.9610    66.5540 hc         1 IRM       0.043200
     51 H10         67.2490    71.6810    66.8820 hc         1 IRM       0.043200
     52 H11         67.2050    81.5490    85.4090 ha         1 IRM       0.173000
     53 H12         67.5180    79.8720    88.0190 ha         1 IRM       0.169000
     54 H13         67.4440    80.9420    90.0960 ha         1 IRM       0.170000
     55 H14         66.2230    83.7560    90.0960 ha         1 IRM       0.171000
     56 H15         67.0450    81.7640    92.3540 ha         1 IRM       0.170000
     57 H16         65.2570    83.6350    94.8270 hc         1 IRM       0.047700
     58 H17         66.3730    82.3150    94.5680 hc         1 IRM       0.047700
     59 H18         68.2930    83.9520    94.5160 hc         1 IRM       0.046700
     60 H19         67.1780    85.2580    94.8440 hc         1 IRM       0.046700
     61 H20         66.8740    84.6360    97.1070 ha         1 IRM       0.163000
     62 H21         66.1390    71.1950    69.0890 hc         1 IRM       0.043200
     63 H22         66.2400    69.4660    68.7550 hc         1 IRM       0.043200
     64 H23         64.3190    69.1690    67.4410 hc         1 IRM       0.041533
     65 H24         63.7040    69.4250    65.8020 hc         1 IRM       0.041533
     66 H25         65.2550    68.5950    66.0460 hc         1 IRM       0.041533
     67 H26         64.1600    71.7020    67.9360 hc         1 IRM       0.041533
     68 H27         64.9770    72.8640    66.8690 hc         1 IRM       0.041533
     69 H28         63.5360    71.9960    66.3070 hc         1 IRM       0.041533
     70 H29         68.4420    68.3610    71.8950 hc         1 IRM       0.040700
     71 H30         66.7760    68.5710    71.3260 hc         1 IRM       0.040700
     72 H31         68.0380    68.0120    70.2200 hc         1 IRM       0.040700
     73 H32         69.0190    70.5840    77.0090 hc         1 IRM       0.042033
     74 H33         67.4940    70.1770    76.2060 hc         1 IRM       0.042033
     75 H34         69.0530    69.8450    75.4310 hc         1 IRM       0.042033
     76 H35         69.1540    73.7310    81.5370 hc         1 IRM       0.042033
     77 H36         67.7260    72.9440    80.8460 hc         1 IRM       0.042033
     78 H37         69.3320    72.7150    80.1320 hc         1 IRM       0.042033
     79 H38         66.8970    80.8550    82.7220 hc         1 IRM       0.042367
     80 H39         68.4010    81.3660    83.5080 hc         1 IRM       0.042367
     81 H40         68.4730    80.3520    82.0920 hc         1 IRM       0.042367
     82 H41         67.3170    84.1090    88.1630 hc         1 IRM       0.042033
     83 H42         67.4790    83.3890    86.5840 hc         1 IRM       0.042033
     84 H43         65.8760    83.5050    87.3270 hc         1 IRM       0.042033
     85 H44         64.9170    85.3650    93.2670 hc         1 IRM       0.041367
     86 H45         66.3020    85.6640    92.2080 hc         1 IRM       0.041367
     87 H46         64.8600    84.8390    91.5900 hc         1 IRM       0.041367
     88 H47         68.7480    69.6370    68.6790 hc         1 IRM       0.045200
     89 H48         68.6360    71.3560    68.9750 hc         1 IRM       0.045200
     90 H49         67.7910    81.8380    98.9500 hc         1 IRM       0.038867
     91 H50         69.2090    82.8990    99.0150 hc         1 IRM       0.038867
     92 H51         67.5840    83.5840    99.1310 hc         1 IRM       0.038867
     93 H52         70.0390    81.9800    96.6940 hc         1 IRM       0.038867
     94 H53         68.6510    80.8840    96.7140 hc         1 IRM       0.038867
     95 H54         68.9140    81.9430    95.3340 hc         1 IRM       0.038867
     96 H55         68.5080    72.1520    71.2250 ha         1 IRM       0.169000
     97 H56         68.0250    70.0020    73.4390 ha         1 IRM       0.172000
     98 H57         68.7050    72.9930    73.4970 ha         1 IRM       0.170000
     99 H58         66.1510    70.3350    64.6160 ho         1 IRM       0.438000
@<TRIPOS>BOND
     1     1    12 1   
     2     1    24 1   
     3     1    25 1   
     4     1    41 1   
     5     2     3 1   
     6     2    40 2   
     7     2    42 1   
     8     3     4 2   
     9     3    43 1   
    10     4     5 1   
    11     4    44 1   
    12     5     6 2   
    13     5    28 1   
    14     6     7 1   
    15     6    45 1   
    16     7     8 2   
    17     7    46 1   
    18     8     9 1   
    19     8    47 1   
    20     9    10 2   
    21     9    48 1   
    22    10    11 1   
    23    10    29 1   
    24    11    13 2   
    25    11    49 1   
    26    12    23 1   
    27    12    50 1   
    28    12    51 1   
    29    13    14 1   
    30    13    52 1   
    31    14    15 2   
    32    14    53 1   
    33    15    16 1   
    34    15    30 1   
    35    16    17 2   
    36    16    54 1   
    37    17    18 1   
    38    17    55 1   
    39    18    19 2   
    40    18    56 1   
    41    19    20 1   
    42    19    31 1   
    43    20    21 1   
    44    20    57 1   
    45    20    58 1   
    46    21    22 1   
    47    21    59 1   
    48    21    60 1   
    49    22    32 2   
    50    22    61 1   
    51    23    33 1   
    52    23    62 1   
    53    23    63 1   
    54    24    64 1   
    55    24    65 1   
    56    24    66 1   
    57    25    67 1   
    58    25    68 1   
    59    25    69 1   
    60    26    36 1   
    61    26    70 1   
    62    26    71 1   
    63    26    72 1   
    64    27    40 1   
    65    27    73 1   
    66    27    74 1   
    67    27    75 1   
    68    28    76 1   
    69    28    77 1   
    70    28    78 1   
    71    29    79 1   
    72    29    80 1   
    73    29    81 1   
    74    30    82 1   
    75    30    83 1   
    76    30    84 1   
    77    31    85 1   
    78    31    86 1   
    79    31    87 1   
    80    32    34 1   
    81    32    35 1   
    82    33    36 1   
    83    33    88 1   
    84    33    89 1   
    85    34    90 1   
    86    34    91 1   
    87    34    92 1   
    88    35    93 1   
    89    35    94 1   
    90    35    95 1   
    91    36    37 2   
    92    37    38 1   
    93    37    96 1   
    94    38    39 2   
    95    38    97 1   
    96    39    40 1   
    97    39    98 1   
    98    41    99 1   
@<TRIPOS>SUBSTRUCTURE
     1 IRM         1 TEMP              0 ****  ****    0 ROOT
