@<TRIPOS>MOLECULE
IRO
   14    14     1     0     0
SMALL
abcg2


@<TRIPOS>ATOM
      1 OAA          4.7130    52.4340    75.0570 o          1 IRO      -0.668000
      2 CAH          5.8190    52.1440    75.5520 c          1 IRO       0.708200
      3 OAD          6.6380    52.8570    76.1600 o          1 IRO      -0.668000
      4 CAI          6.2090    50.6670    75.4130 cc         1 IRO       0.103400
      5 CAJ          7.0380    50.1610    74.4650 cd         1 IRO      -0.203400
      6 I            7.9360    51.3790    73.0140 i          1 IRO      -0.136800
      7 CAL          7.3230    48.7430    74.4110 c          1 IRO       0.604200
      8 OAC          8.0450    48.1730    73.6040 o          1 IRO      -0.569000
      9 NAG          6.6800    48.0030    75.4060 ns         1 IRO      -0.470500
     10 CAK          5.8390    48.4720    76.3850 c          1 IRO       0.605000
     11 OAB          5.3150    47.7540    77.2210 o          1 IRO      -0.602000
     12 NAF          5.6390    49.8330    76.3350 ns         1 IRO      -0.489600
     13 H3           6.8500    47.0050    75.4050 hn         1 IRO       0.320500
     14 H2           5.0120    50.2120    77.0320 hn         1 IRO       0.466000
@<TRIPOS>BOND
     1     1     2 1   
     2     2     3 1   
     3     2     4 1   
     4     4     5 2   
     5     4    12 1   
     6     5     6 1   
     7     5     7 1   
     8     7     8 2   
     9     7     9 1   
    10     9    10 1   
    11     9    13 1   
    12    10    11 2   
    13    10    12 1   
    14    12    14 1   
@<TRIPOS>SUBSTRUCTURE
     1 IRO         1 TEMP              0 ****  ****    0 ROOT
