@<TRIPOS>MOLECULE
IRO
   14    14     1     0     0
SMALL
No Charge or Current Charge


@<TRIPOS>ATOM
      1 OAA          4.8700    52.4000    76.3570 o          1 IRO      -0.668000
      2 CAH          5.7930    52.1540    75.5860 c          1 IRO       0.708200
      3 OAD          6.3680    53.0430    74.9730 o          1 IRO      -0.668000
      4 CAI          6.2020    50.7010    75.4180 cc         1 IRO       0.103400
      5 CAJ          7.2170    50.2110    74.6000 cd         1 IRO      -0.203400
      6 I            8.5140    51.3490    73.3260 i          1 IRO      -0.136800
      7 CAL          7.4660    48.7410    74.5720 c          1 IRO       0.604200
      8 OAC          8.3270    48.2020    73.8940 o          1 IRO      -0.569000
      9 NAG          6.6500    48.0030    75.3760 ns         1 IRO      -0.470500
     10 CAK          5.6560    48.4360    76.1840 c          1 IRO       0.605000
     11 OAB          4.9820    47.6890    76.8660 o          1 IRO      -0.602000
     12 NAF          5.4740    49.7790    76.1690 ns         1 IRO      -0.489600
     13 H3           6.8070    47.0080    75.3670 hn         1 IRO       0.320500
     14 H2           4.7310    50.1200    76.7710 hn         1 IRO       0.466000
@<TRIPOS>BOND
     1     1     2 1   
     2     2     3 1   
     3     2     4 1   
     4     4     5 2   
     5     4    12 1   
     6     5     6 1   
     7     5     7 1   
     8     7     8 2   
     9     7     9 1   
    10     9    10 1   
    11     9    13 1   
    12    10    11 2   
    13    10    12 1   
    14    12    14 1   
@<TRIPOS>SUBSTRUCTURE
     1 IRO         1 TEMP              0 ****  ****    0 ROOT
