@<TRIPOS>MOLECULE
IRR
   64    65     1     0     0
SMALL
bcc


@<TRIPOS>ATOM
      1 C15        -20.4450    25.5470    -0.3440 c3         1 IRR      -0.058700
      2 C19        -21.4610    22.8730     2.7790 c          1 IRR       0.757100
      3 C22        -22.8200    19.5270     2.6430 cx         1 IRR      -0.136700
      4 C16        -18.9590    25.3330    -0.0780 c3         1 IRR      -0.091100
      5 C17        -20.6530    26.5260    -1.4970 c3         1 IRR      -0.091100
      6 C24        -22.4820    18.1340     3.0840 cx         1 IRR      -0.126400
      7 C26        -22.5440    18.8230    -0.7790 c3         1 IRR      -0.069400
      8 C27        -23.2150    20.1890    -0.7680 c3         1 IRR      -0.092100
      9 O28        -20.8630    22.9920     3.8300 o          1 IRR      -0.605000
     10 N11        -21.1880    26.6310     4.0630 ns         1 IRR      -0.566900
     11 C01        -21.7870    28.7710     4.9790 c          1 IRR       0.560900
     12 C03        -21.7340    27.2790     5.2320 c3         1 IRR      -0.018300
     13 C04        -20.9910    26.9080     6.5100 c3         1 IRR      -0.064400
     14 C05        -20.9390    25.4070     6.7390 c5         1 IRR      -0.158700
     15 C06        -20.2000    25.0260     8.0140 c          1 IRR       0.706500
     16 C08        -21.9460    23.4780     7.7520 c5         1 IRR       0.100000
     17 C09        -22.2850    24.7000     6.8970 c5         1 IRR      -0.089400
     18 C12        -21.8870    25.7920     3.2730 c          1 IRR       0.650100
     19 C13        -21.0770    25.1690     2.1320 c3         1 IRR       0.051700
     20 C14        -21.1890    26.0600     0.8920 c3         1 IRR      -0.084400
     21 C21        -22.1040    20.6600     3.3040 c3         1 IRR       0.193400
     22 C23        -22.0820    18.6040     1.7190 cx         1 IRR      -0.101700
     23 N07        -20.8250    23.9550     8.5330 ns         1 IRR      -0.581900
     24 N18        -21.5560    23.8430     1.8460 ns         1 IRR      -0.543900
     25 O02        -21.4910    29.6130     5.7840 o          1 IRR      -0.498100
     26 O10        -19.2150    25.5790     8.4730 o          1 IRR      -0.633500
     27 O20        -22.0830    21.7620     2.3890 os         1 IRR      -0.429900
     28 H1         -20.8800    24.5880    -0.6420 hc         1 IRR       0.050700
     29 H2         -23.8640    19.7150     2.4080 hc         1 IRR       0.091700
     30 H3         -18.7790    24.5620     0.6720 hc         1 IRR       0.036700
     31 H4         -18.4450    25.0230    -0.9890 hc         1 IRR       0.036700
     32 H5         -18.4880    26.2560     0.2700 hc         1 IRR       0.036700
     33 H6         -21.7130    26.6700    -1.7120 hc         1 IRR       0.036700
     34 H7         -20.2250    27.5030    -1.2620 hc         1 IRR       0.036700
     35 H8         -20.1740    26.1650    -2.4080 hc         1 IRR       0.036700
     36 H9         -23.2930    17.4200     3.1600 hc         1 IRR       0.074200
     37 H10        -21.7130    18.0080     3.8370 hc         1 IRR       0.074200
     38 H11        -23.8190    17.8950     0.6920 hc         1 IRR       0.040700
     39 H12        -22.3550    17.0050     0.3440 hc         1 IRR       0.040700
     40 H13        -22.9280    18.2410    -1.6220 hc         1 IRR       0.036700
     41 H14        -21.4710    18.9420    -0.9620 hc         1 IRR       0.036700
     42 H15        -23.0930    20.6950    -1.7270 hc         1 IRR       0.033700
     43 H16        -24.2870    20.0970    -0.5780 hc         1 IRR       0.033700
     44 H17        -22.8000    20.8380     0.0030 hc         1 IRR       0.033700
     45 H18        -20.1960    26.7280     3.9020 hn         1 IRR       0.319500
     46 H19        -22.1370    29.0370     3.9640 h4         1 IRR      -0.005800
     47 H21        -22.7810    26.9600     5.3060 h1         1 IRR       0.101700
     48 H22        -19.9740    27.3060     6.4720 hc         1 IRR       0.070200
     49 H23        -21.4900    27.3920     7.3530 hc         1 IRR       0.070200
     50 H24        -20.3840    24.9360     5.9180 hc         1 IRR       0.088700
     51 H25        -22.7710    23.1700     8.3930 h1         1 IRR       0.046200
     52 H26        -21.6630    22.6230     7.1310 h1         1 IRR       0.046200
     53 H27        -22.9840    25.3470     7.4340 hc         1 IRR       0.062200
     54 H28        -22.7450    24.4230     5.9520 hc         1 IRR       0.062200
     55 H29        -20.0280    25.1090     2.4340 h1         1 IRR       0.079700
     56 H30        -20.8020    27.0490     1.1540 hc         1 IRR       0.056200
     57 H31        -22.2470    26.1950     0.6480 hc         1 IRR       0.056200
     58 H32        -21.0830    20.3650     3.5620 h1         1 IRR       0.051200
     59 H33        -22.6110    20.9570     4.2260 h1         1 IRR       0.051200
     60 H34        -21.0240    18.8210     1.5910 hc         1 IRR       0.079700
     61 H35        -20.4500    23.4450     9.3180 hn         1 IRR       0.325500
     62 H36        -22.2090    23.7160     1.0870 hn         1 IRR       0.335500
     63 O29        -23.0730    25.5580     3.4160 o          1 IRR      -0.597100
     64 C25        -22.7470    18.0150     0.5000 c3         1 IRR      -0.045400
@<TRIPOS>BOND
     1     1     4 1   
     2     1     5 1   
     3     1    20 1   
     4     1    28 1   
     5     2     9 2   
     6     2    24 1   
     7     2    27 1   
     8     3     6 1   
     9     3    21 1   
    10     3    22 1   
    11     3    29 1   
    12     4    30 1   
    13     4    31 1   
    14     4    32 1   
    15     5    33 1   
    16     5    34 1   
    17     5    35 1   
    18     6    22 1   
    19     6    36 1   
    20     6    37 1   
    21     7     8 1   
    22     7    40 1   
    23     7    41 1   
    24     7    64 1   
    25     8    42 1   
    26     8    43 1   
    27     8    44 1   
    28    10    12 1   
    29    10    18 1   
    30    10    45 1   
    31    11    12 1   
    32    11    25 2   
    33    11    46 1   
    34    12    13 1   
    35    12    47 1   
    36    13    14 1   
    37    13    48 1   
    38    13    49 1   
    39    14    15 1   
    40    14    17 1   
    41    14    50 1   
    42    15    23 1   
    43    15    26 2   
    44    16    17 1   
    45    16    23 1   
    46    16    51 1   
    47    16    52 1   
    48    17    53 1   
    49    17    54 1   
    50    18    19 1   
    51    18    63 2   
    52    19    20 1   
    53    19    24 1   
    54    19    55 1   
    55    20    56 1   
    56    20    57 1   
    57    21    27 1   
    58    21    58 1   
    59    21    59 1   
    60    22    60 1   
    61    22    64 1   
    62    23    61 1   
    63    24    62 1   
    64    38    64 1   
    65    39    64 1   
@<TRIPOS>SUBSTRUCTURE
     1 IRR         1 TEMP              0 ****  ****    0 ROOT
