@<TRIPOS>MOLECULE
IRR
   64    65     1     0     0
SMALL
No Charge or Current Charge


@<TRIPOS>ATOM
      1 C15        -19.4490    24.8290     0.2700 c3         1 IRR      -0.058700
      2 C19        -20.5670    22.2000     2.3740 c          1 IRR       0.641100
      3 C22        -21.9110    18.8450     1.7900 cx         1 IRR      -0.136700
      4 C16        -18.0380    24.9520     0.8940 c3         1 IRR      -0.091100
      5 C17        -19.4770    25.4740    -1.1350 c3         1 IRR      -0.091100
      6 C24        -21.5810    17.4880     1.2080 cx         1 IRR      -0.126400
      7 C26        -24.4410    19.5700    -0.6030 c3         1 IRR      -0.069400
      8 C27        -24.6480    20.6770     0.4500 c3         1 IRR      -0.092100
      9 O28        -19.3680    22.1400     2.5910 o          1 IRR      -0.556000
     10 N11        -21.2450    26.6880     3.9750 ns         1 IRR      -0.499900
     11 C01        -21.9310    29.0350     4.3690 c          1 IRR       0.560900
     12 C03        -21.9500    27.5870     4.9210 c3         1 IRR      -0.018300
     13 C04        -21.3500    27.4700     6.3500 c3         1 IRR      -0.064400
     14 C05        -21.4760    26.0660     7.0050 c5         1 IRR      -0.158700
     15 C06        -20.8360    25.9710     8.3960 c          1 IRR       0.564000
     16 C08        -22.7020    24.4910     8.3460 c5         1 IRR       0.100000
     17 C09        -22.9310    25.5860     7.2700 c5         1 IRR      -0.089400
     18 C12        -21.7700    25.5260     3.4380 c          1 IRR       0.583100
     19 C13        -20.7900    24.7150     2.5410 c3         1 IRR       0.051700
     20 C14        -20.5590    25.4300     1.1780 c3         1 IRR      -0.084400
     21 C21        -20.7990    19.8350     2.1160 c3         1 IRR       0.216600
     22 C23        -22.2860    18.5210     0.3590 cx         1 IRR      -0.101700
     23 N07        -21.6040    25.0870     9.1040 ns         1 IRR      -0.514900
     24 N18        -21.3090    23.3450     2.3400 ns         1 IRR      -0.476900
     25 O02        -21.2110    29.9320     4.8000 o          1 IRR      -0.498100
     26 O10        -19.9790    26.6720     8.9100 o          1 IRR      -0.558000
     27 O20        -21.3870    21.1440     2.1330 os         1 IRR      -0.453100
     28 H1         -19.6600    23.7610     0.1310 hc         1 IRR       0.050700
     29 H2         -22.7170    18.8780     2.5190 hc         1 IRR       0.091700
     30 H3         -17.9730    24.4160     1.8470 hc         1 IRR       0.036700
     31 H4         -17.2820    24.5260     0.2240 hc         1 IRR       0.036700
     32 H5         -17.7810    26.0030     1.0730 hc         1 IRR       0.036700
     33 H6         -20.4580    25.3350    -1.6060 hc         1 IRR       0.036700
     34 H7         -19.2730    26.5500    -1.0760 hc         1 IRR       0.036700
     35 H8         -18.7230    25.0170    -1.7870 hc         1 IRR       0.036700
     36 H9         -22.1560    16.6350     1.5600 hc         1 IRR       0.074200
     37 H10        -20.5410    17.2680     0.9740 hc         1 IRR       0.074200
     38 H11        -24.3200    17.8960     0.7700 hc         1 IRR       0.040700
     39 H12        -23.7600    17.5380    -0.8520 hc         1 IRR       0.040700
     40 H13        -25.4220    19.2800    -0.9990 hc         1 IRR       0.036700
     41 H14        -23.8700    19.9750    -1.4470 hc         1 IRR       0.036700
     42 H15        -25.2300    21.5030     0.0250 hc         1 IRR       0.033700
     43 H16        -25.1890    20.2890     1.3220 hc         1 IRR       0.033700
     44 H17        -23.6870    21.0800     0.7870 hc         1 IRR       0.033700
     45 H18        -20.2810    26.9000     3.7360 hn         1 IRR       0.319500
     46 H19        -22.6340    29.2260     3.5280 h4         1 IRR      -0.005800
     47 H21        -23.0110    27.3070     4.9640 h1         1 IRR       0.101700
     48 H22        -20.2910    27.7570     6.3080 hc         1 IRR       0.070200
     49 H23        -21.8380    28.2120     6.9960 hc         1 IRR       0.070200
     50 H24        -20.9770    25.3180     6.3780 hc         1 IRR       0.088700
     51 H25        -23.5980    24.3180     8.9560 h1         1 IRR       0.046200
     52 H26        -22.4000    23.5370     7.8920 h1         1 IRR       0.046200
     53 H27        -23.5520    26.3970     7.6700 hc         1 IRR       0.062200
     54 H28        -23.4320    25.1980     6.3760 hc         1 IRR       0.062200
     55 H29        -19.8430    24.6620     3.0930 h1         1 IRR       0.079700
     56 H30        -20.3180    26.4850     1.3610 hc         1 IRR       0.056200
     57 H31        -21.5100    25.4290     0.6290 hc         1 IRR       0.056200
     58 H32        -20.0070    19.7720     1.3580 h1         1 IRR       0.051200
     59 H33        -20.3640    19.5900     3.0940 h1         1 IRR       0.051200
     60 H34        -21.6900    18.9850    -0.4250 hc         1 IRR       0.079700
     61 H35        -21.4050    24.9390    10.0870 hn         1 IRR       0.325500
     62 H36        -22.3030    23.2200     2.1910 hn         1 IRR       0.335500
     63 O29        -22.9210    25.1740     3.6610 o          1 IRR      -0.597100
     64 C25        -23.7370    18.3020    -0.0650 c3         1 IRR      -0.045400
@<TRIPOS>BOND
     1     1     4 1   
     2     1     5 1   
     3     1    20 1   
     4     1    28 1   
     5     2     9 2   
     6     2    24 1   
     7     2    27 1   
     8     3     6 1   
     9     3    21 1   
    10     3    22 1   
    11     3    29 1   
    12     4    30 1   
    13     4    31 1   
    14     4    32 1   
    15     5    33 1   
    16     5    34 1   
    17     5    35 1   
    18     6    22 1   
    19     6    36 1   
    20     6    37 1   
    21     7     8 1   
    22     7    40 1   
    23     7    41 1   
    24     7    64 1   
    25     8    42 1   
    26     8    43 1   
    27     8    44 1   
    28    10    12 1   
    29    10    18 1   
    30    10    45 1   
    31    11    12 1   
    32    11    25 2   
    33    11    46 1   
    34    12    13 1   
    35    12    47 1   
    36    13    14 1   
    37    13    48 1   
    38    13    49 1   
    39    14    15 1   
    40    14    17 1   
    41    14    50 1   
    42    15    23 1   
    43    15    26 2   
    44    16    17 1   
    45    16    23 1   
    46    16    51 1   
    47    16    52 1   
    48    17    53 1   
    49    17    54 1   
    50    18    19 1   
    51    18    63 2   
    52    19    20 1   
    53    19    24 1   
    54    19    55 1   
    55    20    56 1   
    56    20    57 1   
    57    21    27 1   
    58    21    58 1   
    59    21    59 1   
    60    22    60 1   
    61    22    64 1   
    62    23    61 1   
    63    24    62 1   
    64    38    64 1   
    65    39    64 1   
@<TRIPOS>SUBSTRUCTURE
     1 IRR         1 TEMP              0 ****  ****    0 ROOT
