@<TRIPOS>MOLECULE
IRS
   14    13     1     0     0
SMALL
bcc


@<TRIPOS>ATOM
      1 N1          -1.7370    -0.4730    -0.4710 n8         1 IRS      -0.877800
      2 C1          -0.8850     0.1740     0.5240 c3         1 IRS       0.183000
      3 C2           0.5620     0.1640     0.1070 c2         1 IRS      -0.106400
      4 C3           1.1520    -1.1780    -0.2050 c3         1 IRS      -0.057900
      5 C4           1.2780     1.2850     0.0480 c2         1 IRS      -0.218000
      6 H1          -1.6200    -1.4770    -0.4140 hn         1 IRS       0.334800
      7 H2          -1.2180     1.2070     0.6430 h1         1 IRS       0.031700
      8 H3          -0.9600    -0.2920     1.5190 h1         1 IRS       0.031700
      9 H4           0.6650    -1.6270    -1.0740 hc         1 IRS       0.040033
     10 H5           2.2180    -1.1130    -0.4170 hc         1 IRS       0.040033
     11 H6           1.0120    -1.8730     0.6270 hc         1 IRS       0.040033
     12 H7           0.8410     2.2520     0.2680 ha         1 IRS       0.112000
     13 H8           2.3280     1.2750    -0.2170 ha         1 IRS       0.112000
     14 H9          -2.7050    -0.3060    -0.2270 hn         1 IRS       0.334800
@<TRIPOS>BOND
     1     1     2 1   
     2     1     6 1   
     3     1    14 1   
     4     2     3 1   
     5     2     7 1   
     6     2     8 1   
     7     3     4 1   
     8     3     5 2   
     9     4     9 1   
    10     4    10 1   
    11     4    11 1   
    12     5    12 1   
    13     5    13 1   
@<TRIPOS>SUBSTRUCTURE
     1 IRS         1 TEMP              0 ****  ****    0 ROOT
