@<TRIPOS>MOLECULE
IRS
   14    13     1     0     0
SMALL
No Charge or Current Charge


@<TRIPOS>ATOM
      1 N1          -1.8200     0.1070    -0.5040 n8         1 IRS      -0.988200
      2 C1          -0.8740    -0.0060     0.6190 c3         1 IRS       0.183000
      3 C2           0.5610     0.0920     0.1260 c2         1 IRS      -0.106400
      4 C3           1.2880    -1.2400     0.0930 c3         1 IRS      -0.057900
      5 C4           1.1370     1.2490    -0.2420 c2         1 IRS      -0.318000
      6 H1          -1.6590    -0.6760    -1.1470 hn         1 IRS       0.390000
      7 H2          -1.0800     0.8000     1.3370 h1         1 IRS       0.031700
      8 H3          -1.0440    -0.9660     1.1280 h1         1 IRS       0.031700
      9 H4           0.7780    -1.9530    -0.5670 hc         1 IRS       0.040033
     10 H5           2.3170    -1.1320    -0.2730 hc         1 IRS       0.040033
     11 H6           1.3410    -1.6870     1.0930 hc         1 IRS       0.040033
     12 H7           0.5900     2.1910    -0.2080 ha         1 IRS       0.162000
     13 H8           2.1690     1.2940    -0.5900 ha         1 IRS       0.162000
     14 H9          -2.7720    -0.0540    -0.1540 hn         1 IRS       0.390000
@<TRIPOS>BOND
     1     1     2 1   
     2     1     6 1   
     3     1    14 1   
     4     2     3 1   
     5     2     7 1   
     6     2     8 1   
     7     3     4 1   
     8     3     5 2   
     9     4     9 1   
    10     4    10 1   
    11     4    11 1   
    12     5    12 1   
    13     5    13 1   
@<TRIPOS>SUBSTRUCTURE
     1 IRS         1 TEMP              0 ****  ****    0 ROOT
