@<TRIPOS>MOLECULE
IRU
   13    13     1     0     0
SMALL
No Charge or Current Charge


@<TRIPOS>ATOM
      1 C02        -17.9380   -17.1220   -15.3970 c3         1 IRU       0.225900
      2 C03        -18.5420   -17.9990   -16.4630 cc         1 IRU      -0.153300
      3 C04        -18.6410   -19.3590   -16.5510 cd         1 IRU      -0.220000
      4 C05        -19.2990   -19.6660   -17.7590 cd         1 IRU       0.236900
      5 N06        -19.6250   -18.5840   -18.4430 nc         1 IRU      -0.518800
      6 N07        -19.1530   -17.5570   -17.6350 na         1 IRU       0.012800
      7 O01        -18.0710   -15.7380   -15.7430 oh         1 IRU      -0.659000
      8 H022       -18.4410   -17.3270   -14.4420 h1         1 IRU       0.036700
      9 H021       -16.8780   -17.3860   -15.2790 h1         1 IRU       0.036700
     10 H041       -18.2790   -20.0780   -15.8240 ha         1 IRU       0.143000
     11 H051       -19.5480   -20.6430   -18.1540 h4         1 IRU       0.036100
     12 H071       -19.2590   -16.5790   -17.9020 hn         1 IRU       0.375000
     13 H011       -17.6600   -15.2260   -15.0120 ho         1 IRU       0.449000
@<TRIPOS>BOND
     1     1     2 1   
     2     1     7 1   
     3     1     8 1   
     4     1     9 1   
     5     2     3 2   
     6     2     6 1   
     7     3     4 1   
     8     3    10 1   
     9     4     5 2   
    10     4    11 1   
    11     5     6 1   
    12     6    12 1   
    13     7    13 1   
@<TRIPOS>SUBSTRUCTURE
     1 IRU         1 TEMP              0 ****  ****    0 ROOT
