@<TRIPOS>MOLECULE
IRU
   13    13     1     0     0
SMALL
abcg2


@<TRIPOS>ATOM
      1 C02        -17.8430   -17.1180   -15.4880 c3         1 IRU       0.225900
      2 C03        -18.4960   -18.0090   -16.4860 cc         1 IRU      -0.153300
      3 C04        -18.8280   -19.3450   -16.4340 cd         1 IRU      -0.220000
      4 C05        -19.3870   -19.6200   -17.6930 cd         1 IRU       0.236900
      5 N06        -19.4040   -18.5440   -18.4580 nc         1 IRU      -0.518800
      6 N07        -18.8580   -17.5900   -17.7130 na         1 IRU       0.012800
      7 O01        -18.6050   -15.9380   -15.3700 oh         1 IRU      -0.659000
      8 H022       -17.7660   -17.6660   -14.5420 h1         1 IRU       0.036700
      9 H021       -16.8170   -16.9000   -15.8110 h1         1 IRU       0.036700
     10 H041       -18.6880   -20.0180   -15.6040 ha         1 IRU       0.143000
     11 H051       -19.7780   -20.5570   -18.0620 h4         1 IRU       0.036100
     12 H071       -18.7720   -16.6560   -18.0850 hn         1 IRU       0.375000
     13 H011       -18.0930   -15.3030   -14.8580 ho         1 IRU       0.449000
@<TRIPOS>BOND
     1     1     2 1   
     2     1     7 1   
     3     1     8 1   
     4     1     9 1   
     5     2     3 2   
     6     2     6 1   
     7     3     4 1   
     8     3    10 1   
     9     4     5 2   
    10     4    11 1   
    11     5     6 1   
    12     6    12 1   
    13     7    13 1   
@<TRIPOS>SUBSTRUCTURE
     1 IRU         1 TEMP              0 ****  ****    0 ROOT
