@<TRIPOS>MOLECULE
IRV
   43    44     1     0     0
SMALL
abcg2


@<TRIPOS>ATOM
      1 C02          1.6290    -6.4740    24.9830 c          1 IRV       0.602100
      2 C04          2.9530    -7.6750    26.6520 c3         1 IRV      -0.041300
      3 C05          4.2180    -7.3510    27.4630 c3         1 IRV      -0.029100
      4 C06          3.9790    -6.4170    28.6180 ca         1 IRV      -0.052300
      5 C07          3.5170    -6.8960    29.8440 ca         1 IRV      -0.104500
      6 C08          3.2730    -6.0310    30.9010 ca         1 IRV      -0.120500
      7 C09          3.4850    -4.6660    30.7520 ca         1 IRV      -0.131000
      8 C10          3.9460    -4.1760    29.5380 ca         1 IRV      -0.120500
      9 C11          4.1940    -5.0460    28.4840 ca         1 IRV      -0.104500
     10 C12          1.9200    -8.4760    27.4940 c          1 IRV       0.715000
     11 C15          0.9630    -5.1530    24.6560 c3         1 IRV      -0.162400
     12 C16          0.9080    -4.8720    23.1600 c3         1 IRV      -0.065400
     13 C17          0.1420    -3.5940    22.8440 c3         1 IRV      -0.099400
     14 C18          0.0880    -3.3400    21.3440 c3         1 IRV       0.068600
     15 C20         -2.0380    -2.0370    21.0340 cc         1 IRV      -0.229000
     16 C21         -2.3000    -0.7400    20.6920 cd         1 IRV       0.216900
     17 C23         -0.1850    -0.9490    20.6600 cc         1 IRV       0.383400
     18 N03          2.4120    -6.4680    26.0740 ns         1 IRV      -0.455900
     19 N19         -0.6770    -2.1560    21.0050 na         1 IRV      -0.160500
     20 N22         -1.1330    -0.0680    20.4590 nd         1 IRV      -0.685000
     21 O01          1.4620    -7.4690    24.2870 o          1 IRV      -0.630100
     22 H1           3.2680    -8.3190    25.8270 h1         1 IRV       0.065700
     23 H2           4.6270    -8.2950    27.8250 hc         1 IRV       0.044200
     24 H3           4.9640    -6.9170    26.7930 hc         1 IRV       0.044200
     25 H4           3.3500    -7.9590    29.9690 ha         1 IRV       0.122500
     26 H5           2.9200    -6.4240    31.8460 ha         1 IRV       0.097000
     27 H6           3.2960    -3.9910    31.5770 ha         1 IRV       0.093000
     28 H7           4.1210    -3.1150    29.4120 ha         1 IRV       0.097000
     29 H8           4.5690    -4.6550    27.5440 ha         1 IRV       0.122500
     30 H9           1.4600    -4.3300    25.1770 hc         1 IRV       0.053200
     31 H10         -0.0560    -5.1950    25.0580 hc         1 IRV       0.053200
     32 H11          0.4350    -5.7120    22.6480 hc         1 IRV       0.050700
     33 H12          1.9240    -4.7970    22.7630 hc         1 IRV       0.050700
     34 H13          0.6100    -2.7380    23.3390 hc         1 IRV       0.050200
     35 H14         -0.8760    -3.6710    23.2380 hc         1 IRV       0.050200
     36 H15         -0.3550    -4.1950    20.8300 h1         1 IRV       0.059200
     37 H16          1.0930    -3.2090    20.9420 h1         1 IRV       0.059200
     38 H17         -2.6830    -2.8630    21.2840 h4         1 IRV       0.158000
     39 H18         -3.2630    -0.2630    20.5970 h4         1 IRV       0.030100
     40 H19          0.8770    -0.7730    20.5640 h5         1 IRV       0.049100
     41 H20          2.3730    -5.6500    26.6630 hn         1 IRV       0.297500
     42 O13          2.3380    -9.5720    27.9210 o          1 IRV      -0.722000
     43 O14          0.7980    -7.9730    27.6640 o          1 IRV      -0.722000
@<TRIPOS>BOND
     1     1    11 1   
     2     1    18 1   
     3     1    21 2   
     4     2     3 1   
     5     2    10 1   
     6     2    18 1   
     7     2    22 1   
     8     3     4 1   
     9     3    23 1   
    10     3    24 1   
    11     4     5 ar  
    12     4     9 ar  
    13     5     6 ar  
    14     5    25 1   
    15     6     7 ar  
    16     6    26 1   
    17     7     8 ar  
    18     7    27 1   
    19     8     9 ar  
    20     8    28 1   
    21     9    29 1   
    22    10    42 1   
    23    10    43 1   
    24    11    12 1   
    25    11    30 1   
    26    11    31 1   
    27    12    13 1   
    28    12    32 1   
    29    12    33 1   
    30    13    14 1   
    31    13    34 1   
    32    13    35 1   
    33    14    19 1   
    34    14    36 1   
    35    14    37 1   
    36    15    16 2   
    37    15    19 1   
    38    15    38 1   
    39    16    20 1   
    40    16    39 1   
    41    17    19 1   
    42    17    20 2   
    43    17    40 1   
    44    18    41 1   
@<TRIPOS>SUBSTRUCTURE
     1 IRV         1 TEMP              0 ****  ****    0 ROOT
