@<TRIPOS>MOLECULE
IRV
   43    44     1     0     0
SMALL
No Charge or Current Charge


@<TRIPOS>ATOM
      1 C02          1.4330    -7.3810    25.0170 c          1 IRV       0.602100
      2 C04          2.2240    -8.3710    27.2260 c3         1 IRV      -0.041300
      3 C05          3.6650    -7.7920    27.2970 c3         1 IRV      -0.029100
      4 C06          3.7210    -6.2740    27.4640 ca         1 IRV      -0.052300
      5 C07          3.4900    -5.6850    28.7230 ca         1 IRV      -0.104500
      6 C08          3.5350    -4.2870    28.8720 ca         1 IRV      -0.120500
      7 C09          3.8140    -3.4700    27.7640 ca         1 IRV      -0.131000
      8 C10          4.0510    -4.0500    26.5080 ca         1 IRV      -0.120500
      9 C11          4.0070    -5.4470    26.3590 ca         1 IRV      -0.104500
     10 C12          1.6180    -8.5970    28.6480 c          1 IRV       0.715000
     11 C15          0.4270    -6.3970    24.4100 c3         1 IRV      -0.162400
     12 C16          1.0970    -5.0400    24.0920 c3         1 IRV      -0.065400
     13 C17          0.1270    -4.0170    23.4640 c3         1 IRV      -0.099400
     14 C18          0.8010    -2.6620    23.1640 c3         1 IRV       0.068600
     15 C20         -0.4170    -1.5480    21.2290 cc         1 IRV      -0.229000
     16 C21         -1.3220    -0.5220    21.1560 cd         1 IRV       0.216900
     17 C23         -0.8610    -0.7420    23.2520 cc         1 IRV       0.383400
     18 N03          1.3200    -7.5540    26.3790 ns         1 IRV      -0.455900
     19 N19         -0.1230    -1.6870    22.5690 na         1 IRV      -0.160500
     20 N22         -1.5950    -0.0230    22.4130 nd         1 IRV      -0.685000
     21 O01          2.2530    -7.9860    24.3390 o          1 IRV      -0.630100
     22 H1           2.2900    -9.3680    26.7730 h1         1 IRV       0.065700
     23 H2           4.2140    -8.2830    28.1100 hc         1 IRV       0.044200
     24 H3           4.1930    -8.0750    26.3790 hc         1 IRV       0.044200
     25 H4           3.2730    -6.3090    29.5860 ha         1 IRV       0.122500
     26 H5           3.3530    -3.8390    29.8460 ha         1 IRV       0.097000
     27 H6           3.8480    -2.3890    27.8800 ha         1 IRV       0.093000
     28 H7           4.2680    -3.4190    25.6490 ha         1 IRV       0.097000
     29 H8           4.1900    -5.8870    25.3810 ha         1 IRV       0.122500
     30 H9          -0.3930    -6.2160    25.1160 hc         1 IRV       0.053200
     31 H10          0.0340    -6.8210    23.4780 hc         1 IRV       0.053200
     32 H11          1.9420    -5.2040    23.4110 hc         1 IRV       0.050700
     33 H12          1.5090    -4.6200    25.0180 hc         1 IRV       0.050700
     34 H13         -0.7190    -3.8550    24.1430 hc         1 IRV       0.050200
     35 H14         -0.2810    -4.4290    22.5320 hc         1 IRV       0.050200
     36 H15          1.6400    -2.8160    22.4720 h1         1 IRV       0.059200
     37 H16          1.2070    -2.2420    24.0930 h1         1 IRV       0.059200
     38 H17          0.0190    -2.1650    20.4540 h4         1 IRV       0.158000
     39 H18         -1.7920    -0.1150    20.2680 h4         1 IRV       0.030100
     40 H19         -0.8180    -0.6350    24.3300 h5         1 IRV       0.049100
     41 H20          0.5990    -7.0180    26.8480 hn         1 IRV       0.297500
     42 O13          1.9300    -9.6190    29.2450 o          1 IRV      -0.722000
     43 O14          0.7750    -7.8130    29.0650 o          1 IRV      -0.722000
@<TRIPOS>BOND
     1     1    11 1   
     2     1    18 1   
     3     1    21 2   
     4     2     3 1   
     5     2    10 1   
     6     2    18 1   
     7     2    22 1   
     8     3     4 1   
     9     3    23 1   
    10     3    24 1   
    11     4     5 ar  
    12     4     9 ar  
    13     5     6 ar  
    14     5    25 1   
    15     6     7 ar  
    16     6    26 1   
    17     7     8 ar  
    18     7    27 1   
    19     8     9 ar  
    20     8    28 1   
    21     9    29 1   
    22    10    42 1   
    23    10    43 1   
    24    11    12 1   
    25    11    30 1   
    26    11    31 1   
    27    12    13 1   
    28    12    32 1   
    29    12    33 1   
    30    13    14 1   
    31    13    34 1   
    32    13    35 1   
    33    14    19 1   
    34    14    36 1   
    35    14    37 1   
    36    15    16 2   
    37    15    19 1   
    38    15    38 1   
    39    16    20 1   
    40    16    39 1   
    41    17    19 1   
    42    17    20 2   
    43    17    40 1   
    44    18    41 1   
@<TRIPOS>SUBSTRUCTURE
     1 IRV         1 TEMP              0 ****  ****    0 ROOT
