@<TRIPOS>MOLECULE
IRX
   48    50     1     0     0
SMALL
bcc


@<TRIPOS>ATOM
      1 C10        110.5170   108.0580   117.4040 c3         1 IRX      -0.064400
      2 C13        109.0530   106.3480   116.1460 c          1 IRX       0.706500
      3 C15        103.8890   107.6780   114.7350 c          1 IRX       0.604600
      4 C17        102.7890   107.7460   112.4000 cc         1 IRX       0.192700
      5 C20        103.7350   108.3060   111.4110 c3         1 IRX      -0.128400
      6 C21         98.8690   106.5670   111.6440 ca         1 IRX      -0.089000
      7 C22         98.7950   106.0950   114.0080 ca         1 IRX      -0.089000
      8 C24         97.4810   105.6790   113.8820 ca         1 IRX      -0.136500
      9 C7         108.1150   108.6520   118.0940 c3         1 IRX      -0.099400
     10 C8         109.3250   108.9960   117.2320 c3         1 IRX      -0.077400
     11 C9         107.7490   107.1680   118.0470 c3         1 IRX       0.104000
     12 C11        110.2650   106.5770   117.0280 c3         1 IRX      -0.157400
     13 C14        106.3110   107.6880   115.1130 c3         1 IRX       0.079000
     14 C16        102.8170   107.4770   113.7320 cd         1 IRX       0.178500
     15 C18        100.8790   106.9770   113.0490 cc         1 IRX       0.546900
     16 C19         99.4990   106.5430   112.8880 ca         1 IRX      -0.138500
     17 C23         97.5520   106.1500   111.5260 ca         1 IRX      -0.136500
     18 C25         96.8550   105.7060   112.6410 ca         1 IRX      -0.108000
     19 N4         107.8460   106.5840   116.7180 n          1 IRX      -0.473800
     20 N5         105.1440   107.5070   114.2820 ns         1 IRX      -0.572900
     21 N6         101.5870   107.0000   114.1240 nd         1 IRX      -0.631000
     22 O1         109.1600   105.9590   114.9890 o          1 IRX      -0.646500
     23 O2         101.5480   107.4210   111.9710 os         1 IRX      -0.345800
     24 O3         103.6200   107.9910   115.8850 o          1 IRX      -0.571100
     25 H1         110.8720   108.1040   118.4360 hc         1 IRX       0.044200
     26 H2         111.3320   108.4370   116.7860 hc         1 IRX       0.044200
     27 H3         103.2470   109.0580   110.7910 hc         1 IRX       0.064033
     28 H4         104.5760   108.7780   111.9140 hc         1 IRX       0.064033
     29 H5         104.1270   107.5310   110.7500 hc         1 IRX       0.064033
     30 H6          99.3960   106.9100   110.7640 ha         1 IRX       0.149500
     31 H7          99.2800   106.0740   114.9750 ha         1 IRX       0.149500
     32 H8          96.9430   105.3330   114.7550 ha         1 IRX       0.135500
     33 H9         108.3100   108.9140   119.1370 hc         1 IRX       0.049200
     34 H10        107.2650   109.2590   117.7760 hc         1 IRX       0.049200
     35 H11        109.6470   110.0130   117.4630 hc         1 IRX       0.044200
     36 H12        109.0320   109.0190   116.1780 hc         1 IRX       0.044200
     37 H13        106.7290   107.0220   118.4020 h1         1 IRX       0.052700
     38 H14        108.3850   106.6080   118.7340 h1         1 IRX       0.052700
     39 H15        110.1680   105.9700   117.9310 hc         1 IRX       0.064200
     40 H16        111.1270   106.1840   116.4910 hc         1 IRX       0.064200
     41 H17        105.8160   106.2070   116.6020 h1         1 IRX       0.066200
     42 H18        106.7530   105.5830   115.2540 h1         1 IRX       0.066200
     43 H19        107.1480   107.9400   114.4620 h1         1 IRX       0.061700
     44 H20        106.1480   108.5370   115.7770 h1         1 IRX       0.061700
     45 H21         97.0700   106.1730   110.5580 ha         1 IRX       0.135500
     46 H22         95.8270   105.3800   112.5450 ha         1 IRX       0.134000
     47 H23        105.2830   107.0710   113.3840 hn         1 IRX       0.317500
     48 C12        106.6420   106.4330   115.9260 c3         1 IRX       0.074000
@<TRIPOS>BOND
     1     1    10 1   
     2     1    12 1   
     3     1    25 1   
     4     1    26 1   
     5     2    12 1   
     6     2    19 1   
     7     2    22 2   
     8     3    14 1   
     9     3    20 1   
    10     3    24 2   
    11     4     5 1   
    12     4    14 2   
    13     4    23 1   
    14     5    27 1   
    15     5    28 1   
    16     5    29 1   
    17     6    16 ar  
    18     6    17 ar  
    19     6    30 1   
    20     7     8 ar  
    21     7    16 ar  
    22     7    31 1   
    23     8    18 ar  
    24     8    32 1   
    25     9    10 1   
    26     9    11 1   
    27     9    33 1   
    28     9    34 1   
    29    10    35 1   
    30    10    36 1   
    31    11    19 1   
    32    11    37 1   
    33    11    38 1   
    34    12    39 1   
    35    12    40 1   
    36    13    20 1   
    37    13    43 1   
    38    13    44 1   
    39    13    48 1   
    40    14    21 1   
    41    15    16 1   
    42    15    21 2   
    43    15    23 1   
    44    17    18 ar  
    45    17    45 1   
    46    18    46 1   
    47    19    48 1   
    48    20    47 1   
    49    41    48 1   
    50    42    48 1   
@<TRIPOS>SUBSTRUCTURE
     1 IRX         1 TEMP              0 ****  ****    0 ROOT
