@<TRIPOS>MOLECULE
IRX
   48    50     1     0     0
SMALL
No Charge or Current Charge


@<TRIPOS>ATOM
      1 C10        110.7150   108.2610   117.2750 c3         1 IRX      -0.064400
      2 C13        109.3110   106.5030   116.0020 c          1 IRX       0.564000
      3 C15        103.7600   107.3580   114.9740 c          1 IRX       0.537600
      4 C17        102.7400   107.3340   112.5980 cc         1 IRX       0.148300
      5 C20        103.8790   107.6540   111.6620 c3         1 IRX      -0.128400
      6 C21         98.7740   106.5690   111.5110 ca         1 IRX      -0.071000
      7 C22         98.4100   106.2950   113.9000 ca         1 IRX      -0.071000
      8 C24         97.0510   106.0220   113.6600 ca         1 IRX      -0.118500
      9 C7         108.2910   108.5290   118.2820 c3         1 IRX      -0.099400
     10 C8         109.4090   109.0980   117.3640 c3         1 IRX      -0.077400
     11 C9         107.8880   107.0610   118.0030 c3         1 IRX       0.104000
     12 C11        110.5460   106.7630   116.8890 c3         1 IRX      -0.157400
     13 C14        106.2240   107.8490   115.2620 c3         1 IRX       0.079000
     14 C16        102.6340   107.1990   113.9730 cd         1 IRX       0.178500
     15 C18        100.7080   106.8570   113.0830 cc         1 IRX       0.502500
     16 C19         99.2890   106.5720   112.8280 ca         1 IRX      -0.138500
     17 C23         97.4160   106.2960   111.2740 ca         1 IRX      -0.118500
     18 C25         96.5530   106.0220   112.3480 ca         1 IRX      -0.090000
     19 N4         108.0300   106.6850   116.5770 n          1 IRX      -0.406800
     20 N5         105.0060   107.6760   114.4580 ns         1 IRX      -0.505900
     21 N6         101.3060   106.8880   114.2620 nd         1 IRX      -0.631000
     22 O1         109.4420   106.2560   114.8100 o          1 IRX      -0.571000
     23 O2         101.5260   107.1200   112.0300 os         1 IRX      -0.257000
     24 O3         103.6040   107.2210   116.1820 o          1 IRX      -0.571100
     25 H1         111.2530   108.3250   118.2290 hc         1 IRX       0.044200
     26 H2         111.3630   108.7370   116.5290 hc         1 IRX       0.044200
     27 H3         103.5360   107.6590   110.6210 hc         1 IRX       0.064033
     28 H4         104.2980   108.6460   111.8710 hc         1 IRX       0.064033
     29 H5         104.6770   106.9050   111.7380 hc         1 IRX       0.064033
     30 H6          99.4230   106.7790   110.6620 ha         1 IRX       0.131500
     31 H7          98.7770   106.2890   114.9250 ha         1 IRX       0.131500
     32 H8          96.3850   105.8100   114.4930 ha         1 IRX       0.117500
     33 H9         108.5940   108.6190   119.3320 hc         1 IRX       0.049200
     34 H10        107.4030   109.1610   118.1620 hc         1 IRX       0.049200
     35 H11        109.6660   110.1050   117.7150 hc         1 IRX       0.044200
     36 H12        109.0050   109.2360   116.3530 hc         1 IRX       0.044200
     37 H13        106.8460   106.9190   118.3190 h1         1 IRX       0.052700
     38 H14        108.4860   106.3840   118.6240 h1         1 IRX       0.052700
     39 H15        110.4290   106.2200   117.8320 hc         1 IRX       0.064200
     40 H16        111.4520   106.4090   116.3850 hc         1 IRX       0.064200
     41 H17        106.0380   106.0140   116.4010 h1         1 IRX       0.066200
     42 H18        106.9880   105.8500   114.9260 h1         1 IRX       0.066200
     43 H19        106.9830   108.3480   114.6460 h1         1 IRX       0.061700
     44 H20        105.9990   108.5050   116.1140 h1         1 IRX       0.061700
     45 H21         97.0310   106.2970   110.2570 ha         1 IRX       0.117500
     46 H22         95.5020   105.8110   112.1630 ha         1 IRX       0.116000
     47 H23        105.0830   107.7870   113.4550 hn         1 IRX       0.317500
     48 C12        106.7930   106.5110   115.7790 c3         1 IRX       0.074000
@<TRIPOS>BOND
     1     1    10 1   
     2     1    12 1   
     3     1    25 1   
     4     1    26 1   
     5     2    12 1   
     6     2    19 1   
     7     2    22 2   
     8     3    14 1   
     9     3    20 1   
    10     3    24 2   
    11     4     5 1   
    12     4    14 2   
    13     4    23 1   
    14     5    27 1   
    15     5    28 1   
    16     5    29 1   
    17     6    16 ar  
    18     6    17 ar  
    19     6    30 1   
    20     7     8 ar  
    21     7    16 ar  
    22     7    31 1   
    23     8    18 ar  
    24     8    32 1   
    25     9    10 1   
    26     9    11 1   
    27     9    33 1   
    28     9    34 1   
    29    10    35 1   
    30    10    36 1   
    31    11    19 1   
    32    11    37 1   
    33    11    38 1   
    34    12    39 1   
    35    12    40 1   
    36    13    20 1   
    37    13    43 1   
    38    13    44 1   
    39    13    48 1   
    40    14    21 1   
    41    15    16 1   
    42    15    21 2   
    43    15    23 1   
    44    17    18 ar  
    45    17    45 1   
    46    18    46 1   
    47    19    48 1   
    48    20    47 1   
    49    41    48 1   
    50    42    48 1   
@<TRIPOS>SUBSTRUCTURE
     1 IRX         1 TEMP              0 ****  ****    0 ROOT
