@<TRIPOS>MOLECULE
IRY
   56    55     1     0     0
SMALL
No Charge or Current Charge


@<TRIPOS>ATOM
      1 SE1         -0.3210   -18.8540    32.4030 ss         1 IRY      -0.586000
      2 C1           1.4560   -19.8660    21.4650 c3         1 IRY       0.167600
      3 C10          0.6880   -21.0850    31.0060 c3         1 IRY      -0.067400
      4 C11         -0.6310   -20.4270    31.4710 c3         1 IRY       0.142600
      5 C12         -2.0690   -18.3170    32.6990 c3         1 IRY       0.140600
      6 C13         -2.0980   -16.9790    33.4660 c3         1 IRY      -0.072400
      7 C14         -3.5190   -16.4840    33.8260 c3         1 IRY      -0.075400
      8 C15         -4.3980   -16.1290    32.6040 c3         1 IRY      -0.078400
      9 C16         -5.7820   -15.5690    33.0000 c3         1 IRY      -0.075400
     10 C17         -6.6610   -15.2160    31.7840 c3         1 IRY      -0.089100
     11 C2           0.3310   -20.8660    21.0520 c3         1 IRY       0.161300
     12 C3          -0.8920   -20.8330    22.0080 c3         1 IRY       0.130600
     13 C4          -1.4010   -21.3220    24.3160 c          1 IRY       0.596100
     14 C5          -0.7940   -21.7990    25.6370 c3         1 IRY      -0.138400
     15 C6          -0.3040   -20.6070    26.4930 c3         1 IRY      -0.069400
     16 C7           0.3290   -21.0460    27.8320 c3         1 IRY      -0.078400
     17 C8           0.8130   -19.8520    28.6880 c3         1 IRY      -0.076400
     18 C9           1.5310   -20.2540    30.0020 c3         1 IRY      -0.071400
     19 O2          -0.0930   -20.6200    19.6930 oh         1 IRY      -0.641000
     20 O3          -0.4710   -21.2930    23.3100 os         1 IRY      -0.465100
     21 O4          -2.5650   -20.9670    24.1930 o          1 IRY      -0.472000
     22 H1           2.3020   -19.9860    20.7750 h1         1 IRY       0.027700
     23 H2           1.8180   -20.1340    22.4670 h1         1 IRY       0.027700
     24 H3           0.4560   -22.0600    30.5620 hc         1 IRY       0.046200
     25 H4           1.3030   -21.2960    31.8900 hc         1 IRY       0.046200
     26 H5          -1.2740   -20.2210    30.6050 h1         1 IRY       0.053200
     27 H6          -1.1680   -21.1240    32.1280 h1         1 IRY       0.053200
     28 H7          -2.5760   -18.2080    31.7310 h1         1 IRY       0.053700
     29 H8          -2.5900   -19.0900    33.2800 h1         1 IRY       0.053700
     30 H9          -1.5250   -17.0960    34.3940 hc         1 IRY       0.054200
     31 H10         -1.5850   -16.2120    32.8730 hc         1 IRY       0.054200
     32 H11         -3.4240   -15.5960    34.4630 hc         1 IRY       0.040200
     33 H12         -4.0250   -17.2490    34.4290 hc         1 IRY       0.040200
     34 H13         -4.5440   -17.0220    31.9830 hc         1 IRY       0.038200
     35 H14         -3.8740   -15.3890    31.9850 hc         1 IRY       0.038200
     36 H15         -5.6490   -14.6710    33.6150 hc         1 IRY       0.036700
     37 H16         -6.3090   -16.3060    33.6190 hc         1 IRY       0.036700
     38 H17         -7.6300   -14.8240    32.1150 hc         1 IRY       0.032367
     39 H18         -6.1760   -14.4540    31.1630 hc         1 IRY       0.032367
     40 H19         -6.8430   -16.1040    31.1660 hc         1 IRY       0.032367
     41 H20          0.7620   -21.8740    21.1100 h1         1 IRY       0.038700
     42 H21         -1.2890   -19.8110    22.0620 h1         1 IRY       0.069700
     43 H22         -1.6820   -21.4850    21.6110 h1         1 IRY       0.069700
     44 H23         -1.5490   -22.3590    26.2000 hc         1 IRY       0.067700
     45 H24          0.0770   -22.4310    25.4230 hc         1 IRY       0.067700
     46 H25          0.4310   -20.0290    25.9180 hc         1 IRY       0.055200
     47 H26         -1.1490   -19.9370    26.6950 hc         1 IRY       0.055200
     48 H27         -0.4100   -21.6270    28.3960 hc         1 IRY       0.034700
     49 H28          1.1770   -21.7120    27.6290 hc         1 IRY       0.034700
     50 H29          1.5080   -19.2500    28.0900 hc         1 IRY       0.045700
     51 H30         -0.0370   -19.1980    28.9180 hc         1 IRY       0.045700
     52 H31          2.4320   -20.8260    29.7480 hc         1 IRY       0.046200
     53 H32          1.8840   -19.3420    30.4990 hc         1 IRY       0.046200
     54 H33          1.7840   -17.9360    21.6580 ho         1 IRY       0.443000
     55 H34         -0.5760   -21.4200    19.3880 ho         1 IRY       0.441000
     56 O1           1.0030   -18.4970    21.4560 oh         1 IRY      -0.645000
@<TRIPOS>BOND
     1     1     4 1   
     2     1     5 1   
     3     2    11 1   
     4     2    22 1   
     5     2    23 1   
     6     2    56 1   
     7     3     4 1   
     8     3    18 1   
     9     3    24 1   
    10     3    25 1   
    11     4    26 1   
    12     4    27 1   
    13     5     6 1   
    14     5    28 1   
    15     5    29 1   
    16     6     7 1   
    17     6    30 1   
    18     6    31 1   
    19     7     8 1   
    20     7    32 1   
    21     7    33 1   
    22     8     9 1   
    23     8    34 1   
    24     8    35 1   
    25     9    10 1   
    26     9    36 1   
    27     9    37 1   
    28    10    38 1   
    29    10    39 1   
    30    10    40 1   
    31    11    12 1   
    32    11    19 1   
    33    11    41 1   
    34    12    20 1   
    35    12    42 1   
    36    12    43 1   
    37    13    14 1   
    38    13    20 1   
    39    13    21 2   
    40    14    15 1   
    41    14    44 1   
    42    14    45 1   
    43    15    16 1   
    44    15    46 1   
    45    15    47 1   
    46    16    17 1   
    47    16    48 1   
    48    16    49 1   
    49    17    18 1   
    50    17    50 1   
    51    17    51 1   
    52    18    52 1   
    53    18    53 1   
    54    19    55 1   
    55    54    56 1   
@<TRIPOS>SUBSTRUCTURE
     1 IRY         1 TEMP              0 ****  ****    0 ROOT
