@<TRIPOS>MOLECULE
IRY
   56    55     1     0     0
SMALL
abcg2


@<TRIPOS>ATOM
      1 SE1         -0.3200   -18.7980    32.5240 ss         1 IRY      -0.586000
      2 C1           1.0420   -21.3170    21.2040 c3         1 IRY       0.167600
      3 C10          0.8630   -20.9260    30.9410 c3         1 IRY      -0.067400
      4 C11         -0.4890   -20.3350    31.3110 c3         1 IRY       0.142600
      5 C12         -2.2400   -18.4420    32.7130 c3         1 IRY       0.140600
      6 C13         -2.4920   -17.3210    33.7120 c3         1 IRY      -0.072400
      7 C14         -3.9800   -17.0210    33.8960 c3         1 IRY      -0.075400
      8 C15         -4.6510   -16.3980    32.6780 c3         1 IRY      -0.078400
      9 C16         -6.1170   -16.0600    32.9160 c3         1 IRY      -0.075400
     10 C17         -6.7770   -15.4120    31.7070 c3         1 IRY      -0.089100
     11 C2          -0.4590   -21.4820    21.0730 c3         1 IRY       0.161300
     12 C3          -1.2450   -20.5850    22.0290 c3         1 IRY       0.130600
     13 C4          -0.4830   -20.0170    24.2300 c          1 IRY       0.596100
     14 C5          -0.1000   -20.6450    25.5430 c3         1 IRY      -0.138400
     15 C6           0.3670   -19.6450    26.5880 c3         1 IRY      -0.069400
     16 C7           0.7730   -20.3300    27.8870 c3         1 IRY      -0.078400
     17 C8           1.2390   -19.3370    28.9460 c3         1 IRY      -0.076400
     18 C9           1.8130   -19.9860    30.2010 c3         1 IRY      -0.071400
     19 O2          -0.8310   -21.1770    19.7470 oh         1 IRY      -0.641000
     20 O3          -0.9140   -20.9410    23.3720 os         1 IRY      -0.465100
     21 O4          -0.4160   -18.8410    23.9790 o          1 IRY      -0.472000
     22 H1           1.5230   -21.9610    20.4550 h1         1 IRY       0.027700
     23 H2           1.3470   -21.6990    22.1850 h1         1 IRY       0.027700
     24 H3           0.6660   -21.8070    30.3220 hc         1 IRY       0.046200
     25 H4           1.3590   -21.3020    31.8390 hc         1 IRY       0.046200
     26 H5          -1.0320   -20.0110    30.4210 h1         1 IRY       0.053200
     27 H6          -1.1000   -21.0900    31.8100 h1         1 IRY       0.053200
     28 H7          -2.6370   -18.1910    31.7270 h1         1 IRY       0.053700
     29 H8          -2.7310   -19.3600    33.0460 h1         1 IRY       0.053700
     30 H9          -2.0640   -17.5960    34.6790 hc         1 IRY       0.054200
     31 H10         -1.9780   -16.4080    33.3930 hc         1 IRY       0.054200
     32 H11         -4.0920   -16.3410    34.7460 hc         1 IRY       0.040200
     33 H12         -4.5030   -17.9420    34.1750 hc         1 IRY       0.040200
     34 H13         -4.5790   -17.0700    31.8170 hc         1 IRY       0.038200
     35 H14         -4.1100   -15.4870    32.3970 hc         1 IRY       0.038200
     36 H15         -6.1990   -15.3940    33.7800 hc         1 IRY       0.036700
     37 H16         -6.6590   -16.9720    33.1850 hc         1 IRY       0.036700
     38 H17         -7.8220   -15.1660    31.9040 hc         1 IRY       0.032367
     39 H18         -6.2670   -14.4870    31.4290 hc         1 IRY       0.032367
     40 H19         -6.7520   -16.0740    30.8410 hc         1 IRY       0.032367
     41 H20         -0.6770   -22.5320    21.3140 h1         1 IRY       0.038700
     42 H21         -1.0400   -19.5350    21.8300 h1         1 IRY       0.069700
     43 H22         -2.3170   -20.7560    21.9010 h1         1 IRY       0.069700
     44 H23         -0.9550   -21.2170    25.9140 hc         1 IRY       0.067700
     45 H24          0.6830   -21.3850    25.3480 hc         1 IRY       0.067700
     46 H25          1.2160   -19.0750    26.2020 hc         1 IRY       0.055200
     47 H26         -0.4250   -18.9210    26.7910 hc         1 IRY       0.055200
     48 H27         -0.0710   -20.9150    28.2660 hc         1 IRY       0.034700
     49 H28          1.5750   -21.0500    27.6860 hc         1 IRY       0.034700
     50 H29          2.0090   -18.6920    28.5100 hc         1 IRY       0.045700
     51 H30          0.4110   -18.6720    29.2090 hc         1 IRY       0.045700
     52 H31          2.7080   -20.5550    29.9290 hc         1 IRY       0.046200
     53 H32          2.1590   -19.2000    30.8790 hc         1 IRY       0.046200
     54 H33          2.3280   -19.8670    21.2170 ho         1 IRY       0.443000
     55 H34         -1.7440   -21.4500    19.6130 ho         1 IRY       0.441000
     56 O1           1.3900   -19.9640    21.0320 oh         1 IRY      -0.645000
@<TRIPOS>BOND
     1     1     4 1   
     2     1     5 1   
     3     2    11 1   
     4     2    22 1   
     5     2    23 1   
     6     2    56 1   
     7     3     4 1   
     8     3    18 1   
     9     3    24 1   
    10     3    25 1   
    11     4    26 1   
    12     4    27 1   
    13     5     6 1   
    14     5    28 1   
    15     5    29 1   
    16     6     7 1   
    17     6    30 1   
    18     6    31 1   
    19     7     8 1   
    20     7    32 1   
    21     7    33 1   
    22     8     9 1   
    23     8    34 1   
    24     8    35 1   
    25     9    10 1   
    26     9    36 1   
    27     9    37 1   
    28    10    38 1   
    29    10    39 1   
    30    10    40 1   
    31    11    12 1   
    32    11    19 1   
    33    11    41 1   
    34    12    20 1   
    35    12    42 1   
    36    12    43 1   
    37    13    14 1   
    38    13    20 1   
    39    13    21 2   
    40    14    15 1   
    41    14    44 1   
    42    14    45 1   
    43    15    16 1   
    44    15    46 1   
    45    15    47 1   
    46    16    17 1   
    47    16    48 1   
    48    16    49 1   
    49    17    18 1   
    50    17    50 1   
    51    17    51 1   
    52    18    52 1   
    53    18    53 1   
    54    19    55 1   
    55    54    56 1   
@<TRIPOS>SUBSTRUCTURE
     1 IRY         1 TEMP              0 ****  ****    0 ROOT
