@<TRIPOS>MOLECULE
IRZ
   65    67     1     0     0
SMALL
No Charge or Current Charge


@<TRIPOS>ATOM
      1 C12          9.0140     5.1240    21.6700 c          1 IRZ       0.583100
      2 C16         13.4610     3.9600    23.9140 c3         1 IRZ      -0.091600
      3 C15         12.8200     4.8600    22.8340 c3         1 IRZ      -0.058700
      4 C14         11.2880     4.6090    22.7420 c3         1 IRZ      -0.085400
      5 C13         10.4830     5.6040    21.8550 c3         1 IRZ       0.052700
      6 C01          7.5610     1.9230    20.7510 c          1 IRZ       0.561900
      7 C03          7.5560     3.4410    20.4370 c3         1 IRZ      -0.019300
      8 C04          7.2330     3.7550    18.9500 c3         1 IRZ      -0.064400
      9 C05          7.0750     5.2650    18.6150 c5         1 IRZ      -0.160700
     10 C06          6.8020     5.5470    17.1320 c          1 IRZ       0.565000
     11 C08          5.6960     7.2240    18.4110 c5         1 IRZ       0.101000
     12 C09          5.8870     5.9790    19.3190 c5         1 IRZ      -0.090400
     13 C17         13.5360     4.6710    21.4750 c3         1 IRZ      -0.091600
     14 C19         11.3210     7.9830    22.0530 c          1 IRZ       0.641100
     15 C21         11.8060    10.2680    22.5620 c3         1 IRZ       0.214600
     16 C22         11.3020    11.3310    23.5280 cx         1 IRZ      -0.124700
     17 C23         11.3980    12.8030    23.1820 cx         1 IRZ      -0.078400
     18 C24         10.0470    12.1210    23.2360 cx         1 IRZ      -0.104400
     19 C25         11.8240    13.8390    24.1950 ca         1 IRZ      -0.037300
     20 C26         11.4290    13.7590    25.5490 ca         1 IRZ      -0.104000
     21 C27         11.8410    14.7370    26.4690 ca         1 IRZ       0.123000
     22 C29         12.6510    15.8040    26.0530 ca         1 IRZ      -0.102000
     23 C30         13.0510    15.8940    24.7090 ca         1 IRZ      -0.099000
     24 C31         12.6380    14.9150    23.7870 ca         1 IRZ      -0.104000
     25 N07          5.9900     6.6470    17.1020 ns         1 IRZ      -0.515900
     26 N11          8.8570     4.0330    20.8350 ns         1 IRZ      -0.497900
     27 N18         10.4970     6.9640    22.4360 ns         1 IRZ      -0.476900
     28 O10          7.0230     4.8530    16.1530 o          1 IRZ      -0.556000
     29 O20         11.0430     9.0780    22.8110 os         1 IRZ      -0.452100
     30 O32         12.1620     7.9200    21.1720 o          1 IRZ      -0.556000
     31 O33          8.0590     5.6640    22.2150 o          1 IRZ      -0.598100
     32 Cl28        11.3410    14.6220    28.1520 cl         1 IRZ      -0.206000
     33 H1          12.9970     4.1350    24.8920 hc         1 IRZ       0.036700
     34 H2          13.3410     2.8990    23.6610 hc         1 IRZ       0.036700
     35 H3          14.5330     4.1710    24.0080 hc         1 IRZ       0.036700
     36 H4          12.9790     5.8980    23.1530 hc         1 IRZ       0.051700
     37 H5          10.8600     4.6320    23.7520 hc         1 IRZ       0.057200
     38 H6          11.1310     3.5880    22.3710 hc         1 IRZ       0.057200
     39 H7          10.9220     5.6390    20.8510 h1         1 IRZ       0.079700
     40 H8           7.4470     1.6660    21.8270 h4         1 IRZ      -0.005800
     41 H10          6.7600     3.8630    21.0630 h1         1 IRZ       0.100700
     42 H11          6.3110     3.2280    18.6720 hc         1 IRZ       0.070200
     43 H12          8.0260     3.3260    18.3230 hc         1 IRZ       0.070200
     44 H13          7.9970     5.8010    18.8700 hc         1 IRZ       0.092700
     45 H14          6.4090     8.0210    18.6650 h1         1 IRZ       0.044200
     46 H15          4.6790     7.6330    18.4800 h1         1 IRZ       0.044200
     47 H16          4.9850     5.3550    19.3120 hc         1 IRZ       0.062200
     48 H17          6.0930     6.2470    20.3610 hc         1 IRZ       0.062200
     49 H18         14.6140     4.8470    21.5800 hc         1 IRZ       0.036700
     50 H19         13.3930     3.6510    21.0970 hc         1 IRZ       0.036700
     51 H20         13.1610     5.3720    20.7220 hc         1 IRZ       0.036700
     52 H21         12.8760    10.0930    22.7350 h1         1 IRZ       0.053700
     53 H22         11.6720    10.6080    21.5260 h1         1 IRZ       0.053700
     54 H23         11.4790    11.0530    24.5640 hc         1 IRZ       0.094700
     55 H24         11.7630    13.0370    22.1840 hc         1 IRZ       0.082700
     56 H25          9.5370    11.9370    22.2930 hc         1 IRZ       0.080700
     57 H26          9.3840    12.3470    24.0670 hc         1 IRZ       0.080700
     58 H27         10.8030    12.9430    25.8970 ha         1 IRZ       0.128000
     59 H28         12.9680    16.5580    26.7690 ha         1 IRZ       0.131000
     60 H29         13.6790    16.7190    24.3820 ha         1 IRZ       0.119000
     61 H30         12.9560    14.9970    22.7500 ha         1 IRZ       0.116000
     62 H31          5.6150     6.9580    16.2130 hn         1 IRZ       0.325500
     63 H32          9.7040     3.6510    20.4260 hn         1 IRZ       0.320500
     64 H33          9.8220     7.1920    23.1560 hn         1 IRZ       0.336500
     65 O02          7.6800     1.0410    19.9050 o          1 IRZ      -0.497100
@<TRIPOS>BOND
     1     1     5 1   
     2     1    26 1   
     3     1    31 2   
     4     2     3 1   
     5     2    33 1   
     6     2    34 1   
     7     2    35 1   
     8     3     4 1   
     9     3    13 1   
    10     3    36 1   
    11     4     5 1   
    12     4    37 1   
    13     4    38 1   
    14     5    27 1   
    15     5    39 1   
    16     6     7 1   
    17     6    40 1   
    18     6    65 2   
    19     7     8 1   
    20     7    26 1   
    21     7    41 1   
    22     8     9 1   
    23     8    42 1   
    24     8    43 1   
    25     9    10 1   
    26     9    12 1   
    27     9    44 1   
    28    10    25 1   
    29    10    28 2   
    30    11    12 1   
    31    11    25 1   
    32    11    45 1   
    33    11    46 1   
    34    12    47 1   
    35    12    48 1   
    36    13    49 1   
    37    13    50 1   
    38    13    51 1   
    39    14    27 1   
    40    14    29 1   
    41    14    30 2   
    42    15    16 1   
    43    15    29 1   
    44    15    52 1   
    45    15    53 1   
    46    16    17 1   
    47    16    18 1   
    48    16    54 1   
    49    17    18 1   
    50    17    19 1   
    51    17    55 1   
    52    18    56 1   
    53    18    57 1   
    54    19    20 ar  
    55    19    24 ar  
    56    20    21 ar  
    57    20    58 1   
    58    21    22 ar  
    59    21    32 1   
    60    22    23 ar  
    61    22    59 1   
    62    23    24 ar  
    63    23    60 1   
    64    24    61 1   
    65    25    62 1   
    66    26    63 1   
    67    27    64 1   
@<TRIPOS>SUBSTRUCTURE
     1 IRZ         1 TEMP              0 ****  ****    0 ROOT
