@<TRIPOS>MOLECULE
IRZ
   65    67     1     0     0
SMALL
bcc


@<TRIPOS>ATOM
      1 C12          9.3420     4.9900    21.8700 c          1 IRZ       0.650100
      2 C16         12.9630     2.7230    24.4140 c3         1 IRZ      -0.091600
      3 C15         12.7220     3.9010    23.4760 c3         1 IRZ      -0.058700
      4 C14         11.2370     3.9540    23.1060 c3         1 IRZ      -0.085400
      5 C13         10.8370     5.1000    22.1770 c3         1 IRZ       0.052700
      6 C01          7.3820     2.6670    20.2290 c          1 IRZ       0.561900
      7 C03          7.7120     4.1460    20.2260 c3         1 IRZ      -0.019300
      8 C04          7.5160     4.8050    18.8640 c3         1 IRZ      -0.064400
      9 C05          7.8530     6.2850    18.8770 c5         1 IRZ      -0.160700
     10 C06          7.7040     6.9370    17.5090 c          1 IRZ       0.707500
     11 C08          7.0540     8.5370    19.1000 c5         1 IRZ       0.101000
     12 C09          6.9890     7.1680    19.7770 c5         1 IRZ      -0.090400
     13 C17         13.6200     3.8030    22.2480 c3         1 IRZ      -0.091600
     14 C19         10.9440     7.5150    22.1020 c          1 IRZ       0.757100
     15 C21         10.9770     9.8690    22.2650 c3         1 IRZ       0.191400
     16 C22         11.0680    10.8910    23.3540 cx         1 IRZ      -0.124700
     17 C23         10.3260    12.1880    23.1730 cx         1 IRZ      -0.078400
     18 C24          9.8750    11.1830    24.1990 cx         1 IRZ      -0.104400
     19 C25         10.9310    13.4850    23.5600 ca         1 IRZ      -0.037300
     20 C26         11.7370    13.6190    24.6900 ca         1 IRZ      -0.122000
     21 C27         12.2770    14.8530    25.0070 ca         1 IRZ       0.031400
     22 C29         12.0410    15.9780    24.2320 ca         1 IRZ      -0.120000
     23 C30         11.2380    15.8420    23.1100 ca         1 IRZ      -0.117000
     24 C31         10.6900    14.6120    22.7770 ca         1 IRZ      -0.122000
     25 N07          7.2340     8.1810    17.7090 ns         1 IRZ      -0.582900
     26 N11          9.0510     4.3180    20.7380 ns         1 IRZ      -0.564900
     27 N18         11.1300     6.3690    22.7890 ns         1 IRZ      -0.543900
     28 O10          7.9780     6.4330    16.4330 o          1 IRZ      -0.631500
     29 O20         11.1150     8.5840    22.8780 os         1 IRZ      -0.428900
     30 O32         10.6710     7.5660    20.9190 o          1 IRZ      -0.605000
     31 O33          8.5010     5.4460    22.6240 o          1 IRZ      -0.598100
     32 CL28        13.2790    14.9960    26.4180 cl         1 IRZ      -0.114400
     33 H1          12.3430     2.7890    25.3100 hc         1 IRZ       0.036700
     34 H2          12.7300     1.7770    23.9190 hc         1 IRZ       0.036700
     35 H3          14.0050     2.6820    24.7330 hc         1 IRZ       0.036700
     36 H4          12.9830     4.8170    24.0170 hc         1 IRZ       0.051700
     37 H5          10.6370     4.0120    24.0200 hc         1 IRZ       0.057200
     38 H6          10.9620     3.0140    22.6170 hc         1 IRZ       0.057200
     39 H7          11.4020     5.0180    21.2450 h1         1 IRZ       0.079700
     40 H8           7.7190     2.1400    21.1410 h4         1 IRZ      -0.005800
     41 H10          7.0340     4.5950    20.9610 h1         1 IRZ       0.100700
     42 H11          6.4760     4.6670    18.5580 hc         1 IRZ       0.070200
     43 H12          8.1350     4.2960    18.1210 hc         1 IRZ       0.070200
     44 H13          8.9070     6.4160    19.1550 hc         1 IRZ       0.092700
     45 H14          7.8970     9.1270    19.4720 h1         1 IRZ       0.044200
     46 H15          6.1460     9.1220    19.2420 h1         1 IRZ       0.044200
     47 H16          5.9590     6.8020    19.7770 hc         1 IRZ       0.062200
     48 H17          7.3330     7.2030    20.8090 hc         1 IRZ       0.062200
     49 H18         14.6660     3.7120    22.5430 hc         1 IRZ       0.036700
     50 H19         13.3670     2.9250    21.6480 hc         1 IRZ       0.036700
     51 H20         13.5420     4.6800    21.6040 hc         1 IRZ       0.036700
     52 H21         11.7690    10.0170    21.5280 h1         1 IRZ       0.053700
     53 H22         10.0160     9.9410    21.7480 h1         1 IRZ       0.053700
     54 H23         12.0380    10.9630    23.8360 hc         1 IRZ       0.094700
     55 H24          9.7080    12.2510    22.2840 hc         1 IRZ       0.082700
     56 H25          8.9570    10.6470    23.9950 hc         1 IRZ       0.080700
     57 H26         10.0320    11.4180    25.2440 hc         1 IRZ       0.080700
     58 H27         11.9470    12.7700    25.3290 ha         1 IRZ       0.146000
     59 H28         12.4710    16.9340    24.4970 ha         1 IRZ       0.149000
     60 H29         11.0400    16.7070    22.4900 ha         1 IRZ       0.137000
     61 H30         10.0660    14.5270    21.8960 ha         1 IRZ       0.134000
     62 H31          7.1660     8.8530    16.9600 hn         1 IRZ       0.325500
     63 H32          9.8120     4.0340    20.1390 hn         1 IRZ       0.320500
     64 H33         11.2020     6.4150    23.7940 hn         1 IRZ       0.336500
     65 O02          6.8060     2.0920    19.3450 o          1 IRZ      -0.497100
@<TRIPOS>BOND
     1     1     5 1   
     2     1    26 1   
     3     1    31 2   
     4     2     3 1   
     5     2    33 1   
     6     2    34 1   
     7     2    35 1   
     8     3     4 1   
     9     3    13 1   
    10     3    36 1   
    11     4     5 1   
    12     4    37 1   
    13     4    38 1   
    14     5    27 1   
    15     5    39 1   
    16     6     7 1   
    17     6    40 1   
    18     6    65 2   
    19     7     8 1   
    20     7    26 1   
    21     7    41 1   
    22     8     9 1   
    23     8    42 1   
    24     8    43 1   
    25     9    10 1   
    26     9    12 1   
    27     9    44 1   
    28    10    25 1   
    29    10    28 2   
    30    11    12 1   
    31    11    25 1   
    32    11    45 1   
    33    11    46 1   
    34    12    47 1   
    35    12    48 1   
    36    13    49 1   
    37    13    50 1   
    38    13    51 1   
    39    14    27 1   
    40    14    29 1   
    41    14    30 2   
    42    15    16 1   
    43    15    29 1   
    44    15    52 1   
    45    15    53 1   
    46    16    17 1   
    47    16    18 1   
    48    16    54 1   
    49    17    18 1   
    50    17    19 1   
    51    17    55 1   
    52    18    56 1   
    53    18    57 1   
    54    19    20 ar  
    55    19    24 ar  
    56    20    21 ar  
    57    20    58 1   
    58    21    22 ar  
    59    21    32 1   
    60    22    23 ar  
    61    22    59 1   
    62    23    24 ar  
    63    23    60 1   
    64    24    61 1   
    65    25    62 1   
    66    26    63 1   
    67    27    64 1   
@<TRIPOS>SUBSTRUCTURE
     1 IRZ         1 TEMP              0 ****  ****    0 ROOT
