@<TRIPOS>MOLECULE
IS0
   20    20     1     0     0
SMALL
bcc


@<TRIPOS>ATOM
      1 C4         -11.0430    -6.8460     1.2120 ca         1 IS0      -0.130000
      2 C5         -10.1620    -6.0580     0.4970 ca         1 IS0       0.015100
      3 C6         -10.5980    -5.1060    -0.4160 ca         1 IS0      -0.191000
      4 C7         -11.9640    -4.9340    -0.6210 ca         1 IS0       0.125100
      5 C8         -11.6280    -3.2200    -2.2240 c3         1 IS0       0.120700
      6 C3         -12.4060    -6.6620     1.0010 ca         1 IS0      -0.112000
      7 C1         -14.8300    -4.5640     0.6350 c3         1 IS0       0.126700
      8 C2         -12.8750    -5.7290     0.0960 ca         1 IS0       0.078100
      9 BR1         -8.3020    -6.2770     0.7560 br         1 IS0      -0.099100
     10 O2         -12.4950    -4.0520    -1.4790 os         1 IS0      -0.302900
     11 H1         -10.6980    -7.5860     1.9200 ha         1 IS0       0.152000
     12 H2          -9.8790    -4.5070    -0.9590 ha         1 IS0       0.151000
     13 H3         -12.2630    -2.5870    -2.8380 h1         1 IS0       0.044033
     14 H4         -11.0180    -2.5840    -1.5770 h1         1 IS0       0.044033
     15 H5         -10.9690    -3.7980    -2.8770 h1         1 IS0       0.044033
     16 H6         -13.1190    -7.2700     1.5450 ha         1 IS0       0.148000
     17 H7         -15.8870    -4.5690     0.3740 h1         1 IS0       0.036367
     18 H8         -14.7320    -4.7460     1.7090 h1         1 IS0       0.036367
     19 H9         -14.4170    -3.5790     0.4070 h1         1 IS0       0.036367
     20 O1         -14.2080    -5.5930    -0.1230 os         1 IS0      -0.322900
@<TRIPOS>BOND
     1     1     2 ar  
     2     1     6 ar  
     3     1    11 1   
     4     2     3 ar  
     5     2     9 1   
     6     3     4 ar  
     7     3    12 1   
     8     4     8 ar  
     9     4    10 1   
    10     5    10 1   
    11     5    13 1   
    12     5    14 1   
    13     5    15 1   
    14     6     8 ar  
    15     6    16 1   
    16     7    17 1   
    17     7    18 1   
    18     7    19 1   
    19     7    20 1   
    20     8    20 1   
@<TRIPOS>SUBSTRUCTURE
     1 IS0         1 TEMP              0 ****  ****    0 ROOT
