@<TRIPOS>MOLECULE
IS0
   20    20     1     0     0
SMALL
No Charge or Current Charge


@<TRIPOS>ATOM
      1 C4         -10.9030    -7.1160     1.1040 ca         1 IS0      -0.112000
      2 C5         -10.0690    -6.2980     0.3330 ca         1 IS0       0.015100
      3 C6         -10.5970    -5.1950    -0.3540 ca         1 IS0      -0.173000
      4 C7         -11.9780    -4.8910    -0.2790 ca         1 IS0       0.125100
      5 C8         -11.6830    -2.9240    -1.7670 c3         1 IS0       0.143900
      6 C3         -12.2740    -6.8300     1.1890 ca         1 IS0      -0.094000
      7 C1         -14.9710    -4.5010     0.0780 c3         1 IS0       0.149900
      8 C2         -12.8290    -5.7290     0.5100 ca         1 IS0       0.078100
      9 Br1         -8.2000    -6.6860     0.2150 br         1 IS0      -0.099100
     10 O2         -12.4920    -3.7990    -0.9600 os         1 IS0      -0.326100
     11 H1         -10.4900    -7.9710     1.6350 ha         1 IS0       0.134000
     12 H2          -9.9150    -4.5870    -0.9400 ha         1 IS0       0.133000
     13 H3         -12.3030    -2.1330    -2.2070 h1         1 IS0       0.044033
     14 H4         -10.9030    -2.4450    -1.1620 h1         1 IS0       0.044033
     15 H5         -11.2070    -3.4770    -2.5870 h1         1 IS0       0.044033
     16 H6         -12.9180    -7.4680     1.7890 ha         1 IS0       0.130000
     17 H7         -16.0250    -4.5930     0.3700 h1         1 IS0       0.036367
     18 H8         -14.6160    -3.5170     0.4110 h1         1 IS0       0.036367
     19 H9         -14.9220    -4.5520    -1.0170 h1         1 IS0       0.036367
     20 O1         -14.1990    -5.5570     0.6780 os         1 IS0      -0.346100
@<TRIPOS>BOND
     1     1     2 ar  
     2     1     6 ar  
     3     1    11 1   
     4     2     3 ar  
     5     2     9 1   
     6     3     4 ar  
     7     3    12 1   
     8     4     8 ar  
     9     4    10 1   
    10     5    10 1   
    11     5    13 1   
    12     5    14 1   
    13     5    15 1   
    14     6     8 ar  
    15     6    16 1   
    16     7    17 1   
    17     7    18 1   
    18     7    19 1   
    19     7    20 1   
    20     8    20 1   
@<TRIPOS>SUBSTRUCTURE
     1 IS0         1 TEMP              0 ****  ****    0 ROOT
