@<TRIPOS>MOLECULE
IS1
   76    79     1     0     0
SMALL
No Charge or Current Charge


@<TRIPOS>ATOM
      1 CAM        -11.8130     0.6610     0.2050 ca         1 IS1      -0.077000
      2 CAI        -12.9440     1.4500    -0.0630 ca         1 IS1      -0.116000
      3 CAH        -13.4210     1.5750    -1.3780 ca         1 IS1      -0.093000
      4 CAJ        -12.7710     0.9010    -2.4240 ca         1 IS1      -0.116000
      5 CAN        -11.6400     0.1100    -2.1570 ca         1 IS1      -0.077000
      6 CBE        -11.1340    -0.0030    -0.8440 ca         1 IS1      -0.145600
      7 CBC         -9.9280    -0.8840    -0.5820 c          1 IS1       0.613700
      8 OAB         -9.7510    -1.8990    -1.2450 o          1 IS1      -0.592100
      9 NBK         -9.0730    -0.5700     0.5010 n          1 IS1      -0.401800
     10 CAY         -8.7380     0.8360     0.8640 c6         1 IS1       0.096000
     11 CAW         -7.3170     1.2240     0.3900 c6         1 IS1      -0.099400
     12 CAX         -8.0720    -1.5480     1.0060 c6         1 IS1       0.096000
     13 CAV         -6.6410    -1.2130     0.5250 c6         1 IS1      -0.099400
     14 CBF         -6.2430     0.2360     0.9170 c6         1 IS1      -0.058700
     15 CAU         -4.8230     0.6360     0.4100 c3         1 IS1      -0.070400
     16 CAS         -3.6520    -0.1920     0.9910 c3         1 IS1      -0.072400
     17 CAR         -2.2680     0.3170     0.5320 c3         1 IS1      -0.095400
     18 CAT         -1.1040    -0.5110     1.1080 c3         1 IS1       0.100000
     19 NAZ          0.1930    -0.0060     0.6560 ns         1 IS1      -0.488900
     20 CBB          1.4030    -0.5490     1.0190 c          1 IS1       0.587300
     21 OAA          1.4860    -1.5160     1.7630 o          1 IS1      -0.580100
     22 CAF          2.5920     0.1350     0.4340 ce         1 IS1      -0.199200
     23 CAG          3.8900    -0.2360     0.6600 cf         1 IS1      -0.159200
     24 CBD          5.1430     0.3560     0.1430 ca         1 IS1      -0.036800
     25 CAP          6.3820    -0.2060     0.5180 ca         1 IS1      -0.024300
     26 CAL          5.1380     1.4710    -0.7170 ca         1 IS1      -0.006000
     27 CAK          6.3550     1.9920    -1.1780 ca         1 IS1      -0.118000
     28 CAO          7.5680     1.4030    -0.7830 ca         1 IS1      -0.063000
     29 NBL          7.6190     0.2890     0.0720 na         1 IS1       0.041300
     30 C1           8.8860    -0.3600     0.4560 c5         1 IS1       0.271300
     31 O4           9.9530     0.6260     0.5410 os         1 IS1      -0.408000
     32 C4          11.1340     0.0830    -0.0950 c5         1 IS1       0.152300
     33 C5          12.1090     1.2220    -0.4980 c3         1 IS1       0.169600
     34 O5          12.7290     1.8150     0.6590 oh         1 IS1      -0.699000
     35 C3          10.5340    -0.7270    -1.2820 c5         1 IS1       0.097300
     36 O3          11.4500    -1.6700    -1.8690 oh         1 IS1      -0.685000
     37 C2           9.3890    -1.4700    -0.5370 c5         1 IS1       0.098300
     38 O2           9.9390    -2.6170     0.1270 oh         1 IS1      -0.690000
     39 HAM        -11.4770     0.5540     1.2350 ha         1 IS1       0.121500
     40 HAI        -13.4560     1.9590     0.7500 ha         1 IS1       0.118000
     41 HAH        -14.2980     2.1860    -1.5840 ha         1 IS1       0.117000
     42 HAJ        -13.1450     0.9880    -3.4410 ha         1 IS1       0.118000
     43 HAN        -11.1480    -0.4090    -2.9780 ha         1 IS1       0.121500
     44 HAY         -9.4480     1.5440     0.4160 h1         1 IS1       0.060200
     45 HAYA        -8.8060     0.9500     1.9560 h1         1 IS1       0.060200
     46 HAW         -7.2970     1.2440    -0.7090 hc         1 IS1       0.049200
     47 HAWA        -7.0880     2.2450     0.7240 hc         1 IS1       0.049200
     48 HAX         -8.0950    -1.5360     2.1050 h1         1 IS1       0.060200
     49 HAXA        -8.3370    -2.5680     0.6950 h1         1 IS1       0.060200
     50 HAV         -5.9430    -1.9380     0.9630 hc         1 IS1       0.049200
     51 HAVA        -6.5830    -1.3370    -0.5650 hc         1 IS1       0.049200
     52 HBF         -6.2160     0.3090     2.0140 hc         1 IS1       0.046700
     53 HAU         -4.7900     0.5690    -0.6850 hc         1 IS1       0.039700
     54 HAUA        -4.6430     1.6910     0.6540 hc         1 IS1       0.039700
     55 HAS         -3.7010    -0.1670     2.0860 hc         1 IS1       0.047700
     56 HASA        -3.7570    -1.2410     0.6880 hc         1 IS1       0.047700
     57 HAR         -2.2190     0.2920    -0.5640 hc         1 IS1       0.043700
     58 HARA        -2.1490     1.3640     0.8370 hc         1 IS1       0.043700
     59 HAT         -1.1350    -0.4780     2.2050 h1         1 IS1       0.062200
     60 HATA        -1.2060    -1.5590     0.7930 h1         1 IS1       0.062200
     61 HNAZ         0.2120     0.7940     0.0350 hn         1 IS1       0.313500
     62 HAF          2.3740     0.9820    -0.2110 ha         1 IS1       0.179000
     63 HAG          4.0440    -1.0960     1.3190 ha         1 IS1       0.225000
     64 HAP          6.4150    -1.0730     1.1800 h4         1 IS1       0.188000
     65 HAL          4.2080     1.9370    -1.0310 ha         1 IS1       0.161000
     66 HAK          6.3590     2.8560    -1.8420 ha         1 IS1       0.173000
     67 HAO          8.5170     1.8110    -1.1360 h4         1 IS1       0.193000
     68 H1           8.7130    -0.8020     1.4450 h2         1 IS1       0.140700
     69 H4          11.6490    -0.5820     0.6120 h1         1 IS1       0.121700
     70 H5          12.8790     0.8040    -1.1610 h1         1 IS1       0.032200
     71 H5'A        11.5550     1.9790    -1.0710 h1         1 IS1       0.032200
     72 HO5         13.2890     2.5610     0.3380 ho         1 IS1       0.525000
     73 H3          10.1230    -0.0520    -2.0470 h1         1 IS1       0.048700
     74 HO3         11.8520    -1.2460    -2.6670 ho         1 IS1       0.533000
     75 H2           8.5960    -1.7760    -1.2350 h1         1 IS1       0.069700
     76 HO2         10.7130    -2.8590    -0.4460 ho         1 IS1       0.552000
@<TRIPOS>BOND
     1     1     2 ar  
     2     1     6 ar  
     3     1    39 1   
     4     2     3 ar  
     5     2    40 1   
     6     3     4 ar  
     7     3    41 1   
     8     4     5 ar  
     9     4    42 1   
    10     5     6 ar  
    11     5    43 1   
    12     6     7 1   
    13     7     8 2   
    14     7     9 1   
    15     9    10 1   
    16     9    12 1   
    17    10    11 1   
    18    10    44 1   
    19    10    45 1   
    20    11    14 1   
    21    11    46 1   
    22    11    47 1   
    23    12    13 1   
    24    12    48 1   
    25    12    49 1   
    26    13    14 1   
    27    13    50 1   
    28    13    51 1   
    29    14    15 1   
    30    14    52 1   
    31    15    16 1   
    32    15    53 1   
    33    15    54 1   
    34    16    17 1   
    35    16    55 1   
    36    16    56 1   
    37    17    18 1   
    38    17    57 1   
    39    17    58 1   
    40    18    19 1   
    41    18    59 1   
    42    18    60 1   
    43    19    20 1   
    44    19    61 1   
    45    20    21 2   
    46    20    22 1   
    47    22    23 2   
    48    22    62 1   
    49    23    24 1   
    50    23    63 1   
    51    24    25 ar  
    52    24    26 ar  
    53    25    29 2   
    54    25    64 1   
    55    26    27 ar  
    56    26    65 1   
    57    27    28 ar  
    58    27    66 1   
    59    28    29 1   
    60    28    67 1   
    61    29    30 1   
    62    30    31 1   
    63    30    37 1   
    64    30    68 1   
    65    31    32 1   
    66    32    33 1   
    67    32    35 1   
    68    32    69 1   
    69    33    34 1   
    70    33    70 1   
    71    33    71 1   
    72    34    72 1   
    73    35    36 1   
    74    35    37 1   
    75    35    73 1   
    76    36    74 1   
    77    37    38 1   
    78    37    75 1   
    79    38    76 1   
@<TRIPOS>SUBSTRUCTURE
     1 IS1         1 TEMP              0 ****  ****    0 ROOT
