@<TRIPOS>MOLECULE
IS1
   76    79     1     0     0
SMALL
abcg2


@<TRIPOS>ATOM
      1 CAM        -11.5660     0.4990    -0.0820 ca         1 IS1      -0.077000
      2 CAI        -12.5810     1.3330    -0.5300 ca         1 IS1      -0.116000
      3 CAH        -12.6630     1.6690    -1.8750 ca         1 IS1      -0.093000
      4 CAJ        -11.7350     1.1570    -2.7730 ca         1 IS1      -0.116000
      5 CAN        -10.7340     0.3050    -2.3300 ca         1 IS1      -0.077000
      6 CBE        -10.6340    -0.0150    -0.9800 ca         1 IS1      -0.145600
      7 CBC         -9.6010    -1.0080    -0.5450 c          1 IS1       0.613700
      8 OAB         -9.5550    -2.0980    -1.1040 o          1 IS1      -0.592100
      9 NBK         -8.7950    -0.6700     0.4830 n          1 IS1      -0.401800
     10 CAY         -8.5170     0.6970     0.9010 c6         1 IS1       0.096000
     11 CAW         -7.1160     1.1100     0.4700 c6         1 IS1      -0.099400
     12 CAX         -7.8340    -1.6300     1.0030 c6         1 IS1       0.096000
     13 CAV         -6.4130    -1.2780     0.5790 c6         1 IS1      -0.099400
     14 CBF         -6.0480     0.1480     0.9860 c6         1 IS1      -0.058700
     15 CAU         -4.6610     0.5670     0.5060 c3         1 IS1      -0.070400
     16 CAS         -3.5130    -0.2000     1.1510 c3         1 IS1      -0.072400
     17 CAR         -2.1540     0.2960     0.6780 c3         1 IS1      -0.095400
     18 CAT         -1.0050    -0.4360     1.3520 c3         1 IS1       0.100000
     19 NAZ          0.2650     0.0890     0.8950 ns         1 IS1      -0.488900
     20 CBB          1.4450    -0.4610     1.2080 c          1 IS1       0.587300
     21 OAA          1.5570    -1.4760     1.8850 o          1 IS1      -0.580100
     22 CAF          2.6190     0.2730     0.6630 ce         1 IS1      -0.199200
     23 CAG          3.8570    -0.1550     0.9030 cf         1 IS1      -0.159200
     24 CBD          5.0790     0.4930     0.4370 ca         1 IS1      -0.036800
     25 CAP          6.2880    -0.1180     0.7080 ca         1 IS1      -0.024300
     26 CAL          5.1160     1.7070    -0.2560 ca         1 IS1      -0.006000
     27 CAK          6.3280     2.2470    -0.6360 ca         1 IS1      -0.118000
     28 CAO          7.4980     1.5830    -0.3310 ca         1 IS1      -0.063000
     29 NBL          7.4510     0.4200     0.3220 na         1 IS1       0.041300
     30 C1           8.6960    -0.3650     0.6330 c5         1 IS1       0.271300
     31 O4           9.8010     0.4500     0.5440 os         1 IS1      -0.408000
     32 C4          10.6750     0.0320    -0.5150 c5         1 IS1       0.152300
     33 C5          11.2670     1.2270    -1.2170 c3         1 IS1       0.169600
     34 O5          12.0810     1.9300    -0.3140 oh         1 IS1      -0.699000
     35 C3           9.7960    -0.8370    -1.4090 c5         1 IS1       0.097300
     36 O3          10.5790    -1.7450    -2.1230 oh         1 IS1      -0.685000
     37 C2           8.8680    -1.5010    -0.3810 c5         1 IS1       0.098300
     38 O2           9.5130    -2.5460     0.2840 oh         1 IS1      -0.690000
     39 HAM        -11.5060     0.2430     0.9690 ha         1 IS1       0.121500
     40 HAI        -13.3080     1.7200     0.1730 ha         1 IS1       0.118000
     41 HAH        -13.4510     2.3250    -2.2220 ha         1 IS1       0.117000
     42 HAJ        -11.7960     1.4170    -3.8220 ha         1 IS1       0.118000
     43 HAN        -10.0230    -0.1030    -3.0370 ha         1 IS1       0.121500
     44 HAY         -9.2530     1.3790     0.4870 h1         1 IS1       0.060200
     45 HAYA        -8.6040     0.7500     1.9910 h1         1 IS1       0.060200
     46 HAW         -7.0750     1.1530    -0.6250 hc         1 IS1       0.049200
     47 HAWA        -6.9210     2.1220     0.8350 hc         1 IS1       0.049200
     48 HAX         -7.9070    -1.6120     2.0960 h1         1 IS1       0.060200
     49 HAXA        -8.1050    -2.6290     0.6750 h1         1 IS1       0.060200
     50 HAV         -5.7270    -2.0010     1.0260 hc         1 IS1       0.049200
     51 HAVA        -6.3240    -1.3830    -0.5080 hc         1 IS1       0.049200
     52 HBF         -6.0580     0.2000     2.0840 hc         1 IS1       0.046700
     53 HAU         -4.6080     0.4580    -0.5840 hc         1 IS1       0.039700
     54 HAUA        -4.5290     1.6350     0.7100 hc         1 IS1       0.039700
     55 HAS         -3.5810    -0.0990     2.2400 hc         1 IS1       0.047700
     56 HASA        -3.6030    -1.2680     0.9370 hc         1 IS1       0.047700
     57 HAR         -2.0750     0.1740    -0.4060 hc         1 IS1       0.043700
     58 HARA        -2.0690     1.3690     0.8800 hc         1 IS1       0.043700
     59 HAT         -1.0840    -0.3340     2.4390 h1         1 IS1       0.062200
     60 HATA        -1.0600    -1.5050     1.1300 h1         1 IS1       0.062200
     61 HNAZ         0.2540     0.9420     0.3590 hn         1 IS1       0.313500
     62 HAF          2.4280     1.1620     0.0720 ha         1 IS1       0.179000
     63 HAG          3.9940    -1.0540     1.4950 ha         1 IS1       0.225000
     64 HAP          6.3450    -1.0540     1.2480 h4         1 IS1       0.188000
     65 HAL          4.2030     2.2380    -0.4890 ha         1 IS1       0.161000
     66 HAK          6.3820     3.1860    -1.1650 ha         1 IS1       0.173000
     67 HAO          8.4660     1.9780    -0.5910 h4         1 IS1       0.193000
     68 H1           8.5500    -0.7320     1.6510 h2         1 IS1       0.140700
     69 H4          11.4820    -0.5740    -0.0870 h1         1 IS1       0.121700
     70 H5          11.8340     0.8470    -2.0760 h1         1 IS1       0.032200
     71 H5'A        10.4630     1.8560    -1.6240 h1         1 IS1       0.032200
     72 HO5         12.4860     2.6650    -0.7830 ho         1 IS1       0.525000
     73 H3           9.1990    -0.2030    -2.0790 h1         1 IS1       0.048700
     74 HO3         10.0790    -2.0610    -2.8820 ho         1 IS1       0.533000
     75 H2           7.9140    -1.8190    -0.8200 h1         1 IS1       0.069700
     76 HO2         10.0510    -3.0210    -0.3630 ho         1 IS1       0.552000
@<TRIPOS>BOND
     1     1     2 ar  
     2     1     6 ar  
     3     1    39 1   
     4     2     3 ar  
     5     2    40 1   
     6     3     4 ar  
     7     3    41 1   
     8     4     5 ar  
     9     4    42 1   
    10     5     6 ar  
    11     5    43 1   
    12     6     7 1   
    13     7     8 2   
    14     7     9 1   
    15     9    10 1   
    16     9    12 1   
    17    10    11 1   
    18    10    44 1   
    19    10    45 1   
    20    11    14 1   
    21    11    46 1   
    22    11    47 1   
    23    12    13 1   
    24    12    48 1   
    25    12    49 1   
    26    13    14 1   
    27    13    50 1   
    28    13    51 1   
    29    14    15 1   
    30    14    52 1   
    31    15    16 1   
    32    15    53 1   
    33    15    54 1   
    34    16    17 1   
    35    16    55 1   
    36    16    56 1   
    37    17    18 1   
    38    17    57 1   
    39    17    58 1   
    40    18    19 1   
    41    18    59 1   
    42    18    60 1   
    43    19    20 1   
    44    19    61 1   
    45    20    21 2   
    46    20    22 1   
    47    22    23 2   
    48    22    62 1   
    49    23    24 1   
    50    23    63 1   
    51    24    25 ar  
    52    24    26 ar  
    53    25    29 2   
    54    25    64 1   
    55    26    27 ar  
    56    26    65 1   
    57    27    28 ar  
    58    27    66 1   
    59    28    29 1   
    60    28    67 1   
    61    29    30 1   
    62    30    31 1   
    63    30    37 1   
    64    30    68 1   
    65    31    32 1   
    66    32    33 1   
    67    32    35 1   
    68    32    69 1   
    69    33    34 1   
    70    33    70 1   
    71    33    71 1   
    72    34    72 1   
    73    35    36 1   
    74    35    37 1   
    75    35    73 1   
    76    36    74 1   
    77    37    38 1   
    78    37    75 1   
    79    38    76 1   
@<TRIPOS>SUBSTRUCTURE
     1 IS1         1 TEMP              0 ****  ****    0 ROOT
