@<TRIPOS>MOLECULE
IS2
   25    25     1     0     0
SMALL
bcc


@<TRIPOS>ATOM
      1 C1           0.0820     0.2800     3.5910 ca         1 IS2      -0.205300
      2 C2          -0.9520     0.7210     2.7720 ca         1 IS2      -0.098500
      3 C3          -0.8840     0.6500     1.3860 ca         1 IS2      -0.213500
      4 C4           0.2510     0.1170     0.7710 ca         1 IS2       0.128600
      5 C5           1.2960    -0.3290     1.5870 ca         1 IS2      -0.213500
      6 C6           1.2100    -0.2470     2.9660 ca         1 IS2      -0.098500
      7 N11          0.4170    -0.0040    -0.6050 ns         1 IS2      -0.459100
      8 C12         -0.3970     0.3500    -1.6390 c          1 IS2       0.625100
      9 O13         -1.4910     0.8850    -1.4820 o          1 IS2      -0.651100
     10 P14          0.3270    -0.0840    -3.3310 p5         1 IS2       1.032500
     11 O15         -0.6620    -1.1040    -3.8830 o          1 IS2      -0.897833
     12 O16          0.3560     1.2520    -4.0650 o          1 IS2      -0.897833
     13 O17          1.7050    -0.6530    -2.9700 o          1 IS2      -0.897833
     14 C18         -0.0330     0.3220     5.0900 c3         1 IS2      -0.001100
     15 C19         -0.6160    -0.9690     5.6620 c3         1 IS2      -0.083100
     16 H2          -1.8440     1.1400     3.2230 ha         1 IS2       0.091500
     17 H3          -1.7110     1.0100     0.7960 ha         1 IS2       0.146500
     18 H5           2.1900    -0.7420     1.1330 ha         1 IS2       0.146500
     19 H6           2.0420    -0.6000     3.5640 ha         1 IS2       0.091500
     20 H11          1.2830    -0.4220    -0.9300 hn         1 IS2       0.359500
     21 H181        -0.6610     1.1650     5.3880 hc         1 IS2       0.018700
     22 H182         0.9520     0.5000     5.5290 hc         1 IS2       0.018700
     23 H191        -0.6820    -0.9220     6.7500 hc         1 IS2       0.019700
     24 H192        -1.6200    -1.1520     5.2740 hc         1 IS2       0.019700
     25 H193         0.0030    -1.8290     5.4010 hc         1 IS2       0.019700
@<TRIPOS>BOND
     1     1     2 ar  
     2     1     6 ar  
     3     1    14 1   
     4     2     3 ar  
     5     2    16 1   
     6     3     4 ar  
     7     3    17 1   
     8     4     5 ar  
     9     4     7 1   
    10     5     6 ar  
    11     5    18 1   
    12     6    19 1   
    13     7     8 1   
    14     7    20 1   
    15     8     9 2   
    16     8    10 1   
    17    10    11 1   
    18    10    12 1   
    19    10    13 1   
    20    14    15 1   
    21    14    21 1   
    22    14    22 1   
    23    15    23 1   
    24    15    24 1   
    25    15    25 1   
@<TRIPOS>SUBSTRUCTURE
     1 IS2         1 TEMP              0 ****  ****    0 ROOT
