@<TRIPOS>MOLECULE
IS2
   25    25     1     0     0
SMALL
No Charge or Current Charge


@<TRIPOS>ATOM
      1 C1           0.0750     0.2520     3.6110 ca         1 IS2      -0.205300
      2 C2          -1.0030     0.7110     2.8330 ca         1 IS2      -0.080500
      3 C3          -0.9460     0.6490     1.4300 ca         1 IS2      -0.195500
      4 C4           0.1940     0.1240     0.7830 ca         1 IS2       0.036000
      5 C5           1.2670    -0.3350     1.5690 ca         1 IS2      -0.195500
      6 C6           1.2100    -0.2740     2.9710 ca         1 IS2      -0.080500
      7 N11          0.3250     0.0280    -0.6290 ns         1 IS2      -0.133000
      8 C12         -0.5100     0.3860    -1.6810 c          1 IS2       0.558100
      9 O13         -1.6280     0.9070    -1.5490 o          1 IS2      -0.651100
     10 P14          0.3980    -0.0780    -3.4060 p5         1 IS2       1.032500
     11 O15         -0.4450    -1.0700    -4.1460 o          1 IS2      -0.897833
     12 O16          0.5910     1.1740    -4.2040 o          1 IS2      -0.897833
     13 O17          1.7270    -0.6830    -3.0750 o          1 IS2      -0.897833
     14 C18          0.0090     0.3170     5.1320 c3         1 IS2      -0.001100
     15 C19         -0.5970    -0.9580     5.7450 c3         1 IS2      -0.083100
     16 H2          -1.8900     1.1170     3.3160 ha         1 IS2       0.073500
     17 H3          -1.7980     1.0130     0.8670 ha         1 IS2       0.128500
     18 H5           2.1540    -0.7450     1.0910 ha         1 IS2       0.128500
     19 H6           2.0510    -0.6360     3.5590 ha         1 IS2       0.073500
     20 H11          1.1990    -0.3830    -0.9350 hn         1 IS2       0.193000
     21 H181        -0.5880     1.1820     5.4500 hc         1 IS2       0.018700
     22 H182         1.0130     0.4690     5.5490 hc         1 IS2       0.018700
     23 H191        -0.6300    -0.8800     6.8380 hc         1 IS2       0.019700
     24 H192        -1.6190    -1.1140     5.3800 hc         1 IS2       0.019700
     25 H193         0.0030    -1.8370     5.4800 hc         1 IS2       0.019700
@<TRIPOS>BOND
     1     1     2 ar  
     2     1     6 ar  
     3     1    14 1   
     4     2     3 ar  
     5     2    16 1   
     6     3     4 ar  
     7     3    17 1   
     8     4     5 ar  
     9     4     7 1   
    10     5     6 ar  
    11     5    18 1   
    12     6    19 1   
    13     7     8 1   
    14     7    20 1   
    15     8     9 2   
    16     8    10 1   
    17    10    11 1   
    18    10    12 1   
    19    10    13 1   
    20    14    15 1   
    21    14    21 1   
    22    14    22 1   
    23    15    23 1   
    24    15    24 1   
    25    15    25 1   
@<TRIPOS>SUBSTRUCTURE
     1 IS2         1 TEMP              0 ****  ****    0 ROOT
