@<TRIPOS>MOLECULE
IS3
   26    25     1     0     0
SMALL
bcc


@<TRIPOS>ATOM
      1 O            1.1990    -0.3310     0.0930 os         1 IS3      -0.669800
      2 C1          -2.5060     0.3210    -0.0640 c3         1 IS3       0.204400
      3 O1          -1.1930    -0.2230    -0.0580 os         1 IS3      -0.556200
      4 P1           0.0130     0.7540     0.4740 p5         1 IS3       1.446800
      5 C2          -3.5160    -0.8070     0.0270 c3         1 IS3      -0.084400
      6 O2          -0.0820     0.8980     1.9600 o          1 IS3      -0.847000
      7 P2           2.7340     0.1160    -0.2690 p5         1 IS3       1.305800
      8 C3          -4.9680    -0.3240     0.0610 c3         1 IS3      -0.064700
      9 O3           0.1230     1.9640    -0.4010 o          1 IS3      -0.847000
     10 C4          -5.3960     0.3220    -1.2540 c3         1 IS3      -0.081600
     11 O4           3.2000     1.2000     0.6470 o          1 IS3      -0.793500
     12 C5          -5.9000    -1.4820     0.4040 c3         1 IS3      -0.081600
     13 O5           2.9150     0.2180    -1.7490 o          1 IS3      -0.793500
     14 S6           3.5500    -1.7690     0.3890 sh         1 IS3      -0.660200
     15 H1          -2.6590     1.0000     0.7840 h1         1 IS3       0.008200
     16 H1A         -2.6530     0.9100    -0.9740 h1         1 IS3       0.008200
     17 H2          -3.3840    -1.4960    -0.8150 hc         1 IS3       0.044200
     18 H2A         -3.3110    -1.3800     0.9370 hc         1 IS3       0.044200
     19 H4          -6.4340     0.6550    -1.2050 hc         1 IS3       0.020533
     20 H4A         -4.7900     1.1910    -1.5130 hc         1 IS3       0.020533
     21 H4B         -5.3170    -0.3930    -2.0760 hc         1 IS3       0.020533
     22 H5          -5.6410    -1.9360     1.3610 hc         1 IS3       0.020533
     23 H5A         -6.9380    -1.1480     0.4650 hc         1 IS3       0.020533
     24 H11         -5.0570     0.4250     0.8580 hc         1 IS3       0.041700
     25 H12         -5.8500    -2.2620    -0.3590 hc         1 IS3       0.020533
     26 H14          4.7940    -1.5340    -0.0460 hs         1 IS3       0.253800
@<TRIPOS>BOND
     1     1     4 1   
     2     1     7 1   
     3     2     3 1   
     4     2     5 1   
     5     2    15 1   
     6     2    16 1   
     7     3     4 1   
     8     4     6 1   
     9     4     9 1   
    10     5     8 1   
    11     5    17 1   
    12     5    18 1   
    13     7    11 1   
    14     7    13 1   
    15     7    14 1   
    16     8    10 1   
    17     8    12 1   
    18     8    24 1   
    19    10    19 1   
    20    10    20 1   
    21    10    21 1   
    22    12    22 1   
    23    12    23 1   
    24    12    25 1   
    25    14    26 1   
@<TRIPOS>SUBSTRUCTURE
     1 IS3         1 TEMP              0 ****  ****    0 ROOT
