@<TRIPOS>MOLECULE
IS3
   26    25     1     0     0
SMALL
No Charge or Current Charge


@<TRIPOS>ATOM
      1 O            0.9260    -0.6550    -0.1530 os         1 IS3      -0.669800
      2 C1          -2.1100    -0.8880    -0.6340 c3         1 IS3       0.227600
      3 O1          -1.1740    -1.7740    -0.0100 os         1 IS3      -0.579400
      4 P1          -0.0250    -1.2170     0.9790 p5         1 IS3       1.446800
      5 C2          -3.3770    -0.7700     0.2500 c3         1 IS3      -0.084400
      6 O2           0.5950    -2.3680     1.7020 o          1 IS3      -0.847000
      7 P2           1.9480     0.4360     0.3520 p5         1 IS3       1.305800
      8 C3          -4.4430     0.2250    -0.2860 c3         1 IS3      -0.064700
      9 O3          -0.5740    -0.1890     1.9120 o          1 IS3      -0.847000
     10 C4          -4.9920    -0.1730    -1.6770 c3         1 IS3      -0.081600
     11 O4           2.7470     0.0460     1.5500 o          1 IS3      -0.793500
     12 C5          -5.5960     0.4000     0.7280 c3         1 IS3      -0.081600
     13 O5           1.3810     1.8140     0.4020 o          1 IS3      -0.793500
     14 S6           3.1790     0.3140    -1.3320 sh         1 IS3      -0.660200
     15 H1          -1.6710     0.1080    -0.7800 h1         1 IS3       0.008200
     16 H1A         -2.3840    -1.2810    -1.6210 h1         1 IS3       0.008200
     17 H2          -3.8300    -1.7640     0.3510 hc         1 IS3       0.044200
     18 H2A         -3.0870    -0.4550     1.2580 hc         1 IS3       0.044200
     19 H4          -5.7660     0.5320    -2.0030 hc         1 IS3       0.020533
     20 H4A         -4.2000    -0.1640    -2.4350 hc         1 IS3       0.020533
     21 H4B         -5.4340    -1.1770    -1.6500 hc         1 IS3       0.020533
     22 H5          -5.2130     0.7410     1.6980 hc         1 IS3       0.020533
     23 H5A         -6.3180     1.1440     0.3710 hc         1 IS3       0.020533
     24 H11         -3.9580     1.2040    -0.3930 hc         1 IS3       0.041700
     25 H12         -6.1280    -0.5470     0.8820 hc         1 IS3       0.020533
     26 H14          2.4350     1.3490    -1.7830 hs         1 IS3       0.253800
@<TRIPOS>BOND
     1     1     4 1   
     2     1     7 1   
     3     2     3 1   
     4     2     5 1   
     5     2    15 1   
     6     2    16 1   
     7     3     4 1   
     8     4     6 1   
     9     4     9 1   
    10     5     8 1   
    11     5    17 1   
    12     5    18 1   
    13     7    11 1   
    14     7    13 1   
    15     7    14 1   
    16     8    10 1   
    17     8    12 1   
    18     8    24 1   
    19    10    19 1   
    20    10    20 1   
    21    10    21 1   
    22    12    22 1   
    23    12    23 1   
    24    12    25 1   
    25    14    26 1   
@<TRIPOS>SUBSTRUCTURE
     1 IS3         1 TEMP              0 ****  ****    0 ROOT
