@<TRIPOS>MOLECULE
IS4
   63    66     1     0     0
SMALL
No Charge or Current Charge


@<TRIPOS>ATOM
      1 N1          -3.6830   -29.9980    20.5870 na         1 IS4       0.078800
      2 C7          -1.9410   -31.5240    22.3010 c6         1 IS4       0.209800
      3 C8          -1.5550   -30.0780    21.8840 c6         1 IS4      -0.112400
      4 N2          -2.7460   -32.1350    21.2280 nu         1 IS4      -0.940200
      5 C9          -2.8050   -29.2120    21.4980 c6         1 IS4       0.117300
      6 O1           1.2460   -24.6690    20.9860 o          1 IS4      -0.603100
      7 C1          -7.8540   -28.9980    16.9450 ca         1 IS4       0.197100
      8 C5          -5.2070   -30.5370    19.2090 cc         1 IS4       0.357500
      9 C6          -3.6440   -31.3840    20.5230 cd         1 IS4       0.323000
     10 N3          -0.6760   -25.5790    20.1200 n          1 IS4      -0.412800
     11 C4          -6.4480   -30.3810    18.4160 ca         1 IS4      -0.038500
     12 C3          -6.6580   -29.2040    17.6640 ca         1 IS4      -0.223000
     13 N4          -5.4530   -33.3100    18.0140 nt         1 IS4      -0.603000
     14 N           -4.6790   -29.4630    19.7850 nd         1 IS4      -0.525800
     15 C           -8.8740   -29.9640    17.0030 ca         1 IS4      -0.107900
     16 O           -8.0650   -27.8660    16.1800 os         1 IS4      -0.322100
     17 C10         -2.4540   -27.7890    20.9300 c6         1 IS4      -0.066700
     18 C11         -1.7090   -26.8990    21.9690 c6         1 IS4      -0.097400
     19 C12         -1.4370   -25.4880    21.3950 c6         1 IS4       0.096000
     20 C14          1.4030   -25.3010    18.6660 c3         1 IS4      -0.153400
     21 C15          2.8360   -24.7230    18.6040 c3         1 IS4      -0.076100
     22 C16         -1.3860   -26.3790    19.0830 c6         1 IS4       0.096000
     23 C17         -1.6500   -27.8150    19.5930 c6         1 IS4      -0.097400
     24 C18         -4.5790   -31.7490    19.6200 cc         1 IS4      -0.353600
     25 C19         -4.7620   -33.1290    19.1500 c          1 IS4       0.667700
     26 C20         -7.5100   -31.3080    18.5080 ca         1 IS4      -0.223000
     27 C21         -8.7120   -31.1150    17.7940 ca         1 IS4       0.197100
     28 C22         -9.6850   -33.2320    18.6260 c3         1 IS4       0.147400
     29 O2          -4.2680   -34.1020    19.6950 o          1 IS4      -0.663100
     30 Br         -10.5110   -29.6920    16.0260 br         1 IS4      -0.059100
     31 H1          -2.5150   -31.4940    23.2400 h1         1 IS4       0.050200
     32 H2          -1.0290   -32.1100    22.4870 h1         1 IS4       0.050200
     33 H3          -0.8600   -30.1430    21.0380 hc         1 IS4       0.069700
     34 H4          -1.0020   -29.6080    22.7070 hc         1 IS4       0.069700
     35 H5          -2.8860   -33.1520    21.1750 hn         1 IS4       0.531000
     36 H6          -3.3880   -29.0600    22.4170 h1         1 IS4       0.064700
     37 H7          -5.8650   -28.4630    17.6310 ha         1 IS4       0.132500
     38 H8          -7.4610   -26.0200    15.4100 h1         1 IS4       0.045533
     39 H9          -6.8650   -26.3790    17.0430 h1         1 IS4       0.045533
     40 H10         -6.1540   -27.2020    15.6280 h1         1 IS4       0.045533
     41 H11         -5.5650   -34.2440    17.6520 hn         1 IS4       0.316500
     42 H12         -5.8450   -32.5170    17.5300 hn         1 IS4       0.316500
     43 H13         -3.4100   -27.2860    20.7250 hc         1 IS4       0.078700
     44 H14         -2.3020   -26.8130    22.8900 hc         1 IS4       0.052950
     45 H15         -0.7500   -27.3540    22.2510 hc         1 IS4       0.052950
     46 H16         -0.8970   -24.8870    22.1390 h1         1 IS4       0.057950
     47 H17         -2.3930   -24.9790    21.2040 h1         1 IS4       0.057950
     48 H18          0.7650   -24.8650    17.8880 hc         1 IS4       0.054700
     49 H19          1.3950   -26.3610    18.3890 hc         1 IS4       0.054700
     50 H20          3.2640   -24.8700    17.6060 hc         1 IS4       0.042033
     51 H21          2.8310   -23.6480    18.8200 hc         1 IS4       0.042033
     52 H22          3.4870   -25.2210    19.3330 hc         1 IS4       0.042033
     53 H23         -0.8300   -26.4250    18.1390 h1         1 IS4       0.057950
     54 H24         -2.3470   -25.8920    18.8580 h1         1 IS4       0.057950
     55 H25         -2.1950   -28.3780    18.8230 hc         1 IS4       0.052950
     56 H26         -0.6850   -28.3200    19.7280 hc         1 IS4       0.052950
     57 H27         -7.4100   -32.1550    19.1790 ha         1 IS4       0.132500
     58 H28        -10.6150   -33.8040    18.5190 h1         1 IS4       0.045533
     59 H29         -8.8570   -33.8640    18.2820 h1         1 IS4       0.045533
     60 H30         -9.5430   -33.0120    19.6910 h1         1 IS4       0.045533
     61 O3          -9.7560   -32.0190    17.8570 os         1 IS4      -0.322100
     62 C13          0.6740   -25.1590    20.0200 c          1 IS4       0.603100
     63 C2          -7.0860   -26.8190    16.0620 c3         1 IS4       0.147400
@<TRIPOS>BOND
     1     1     5 1   
     2     1     9 1   
     3     1    14 1   
     4     2     3 1   
     5     2     4 1   
     6     2    31 1   
     7     2    32 1   
     8     3     5 1   
     9     3    33 1   
    10     3    34 1   
    11     4     9 1   
    12     4    35 1   
    13     5    17 1   
    14     5    36 1   
    15     6    62 2   
    16     7    12 ar  
    17     7    15 ar  
    18     7    16 1   
    19     8    11 1   
    20     8    14 2   
    21     8    24 1   
    22     9    24 2   
    23    10    19 1   
    24    10    22 1   
    25    10    62 1   
    26    11    12 ar  
    27    11    26 ar  
    28    12    37 1   
    29    13    25 1   
    30    13    41 1   
    31    13    42 1   
    32    15    27 ar  
    33    15    30 1   
    34    16    63 1   
    35    17    18 1   
    36    17    23 1   
    37    17    43 1   
    38    18    19 1   
    39    18    44 1   
    40    18    45 1   
    41    19    46 1   
    42    19    47 1   
    43    20    21 1   
    44    20    48 1   
    45    20    49 1   
    46    20    62 1   
    47    21    50 1   
    48    21    51 1   
    49    21    52 1   
    50    22    23 1   
    51    22    53 1   
    52    22    54 1   
    53    23    55 1   
    54    23    56 1   
    55    24    25 1   
    56    25    29 2   
    57    26    27 ar  
    58    26    57 1   
    59    27    61 1   
    60    28    58 1   
    61    28    59 1   
    62    28    60 1   
    63    28    61 1   
    64    38    63 1   
    65    39    63 1   
    66    40    63 1   
@<TRIPOS>SUBSTRUCTURE
     1 IS4         1 TEMP              0 ****  ****    0 ROOT
