@<TRIPOS>MOLECULE
IS4
   63    66     1     0     0
SMALL
abcg2


@<TRIPOS>ATOM
      1 N1          -3.5790   -30.1280    20.6900 na         1 IS4       0.078800
      2 C7          -1.7630   -31.5630    22.1750 c6         1 IS4       0.209800
      3 C8          -1.4580   -30.1140    21.8350 c6         1 IS4      -0.112400
      4 N2          -2.4860   -32.1690    21.0770 nu         1 IS4      -0.940200
      5 C9          -2.7390   -29.3230    21.5710 c6         1 IS4       0.117300
      6 O1           0.8740   -24.6170    20.8640 o          1 IS4      -0.603100
      7 C1          -7.4790   -28.9160    16.9320 ca         1 IS4       0.197100
      8 C5          -5.1740   -30.5900    19.3680 cc         1 IS4       0.357500
      9 C6          -3.4720   -31.4530    20.4980 cd         1 IS4       0.323000
     10 N3          -0.9780   -25.6530    20.1050 n          1 IS4      -0.412800
     11 C4          -6.3620   -30.3120    18.5460 ca         1 IS4      -0.038500
     12 C3          -6.3570   -29.2050    17.7040 ca         1 IS4      -0.223000
     13 N4          -5.3890   -33.3730    18.0030 nt         1 IS4      -0.603000
     14 N           -4.6200   -29.5970    20.0220 nd         1 IS4      -0.525800
     15 C           -8.5970   -29.7500    17.0120 ca         1 IS4      -0.107900
     16 O           -7.5620   -27.8780    16.0930 os         1 IS4      -0.322100
     17 C10         -2.5190   -27.9240    20.9880 c6         1 IS4      -0.066700
     18 C11         -1.7660   -27.0270    21.9690 c6         1 IS4      -0.097400
     19 C12         -1.6340   -25.6190    21.4000 c6         1 IS4       0.096000
     20 C14          0.9380   -25.3670    18.5950 c3         1 IS4      -0.153400
     21 C15          2.3190   -24.7390    18.5090 c3         1 IS4      -0.076100
     22 C16         -1.6900   -26.4630    19.1320 c6         1 IS4       0.096000
     23 C17         -1.8300   -27.9010    19.6230 c6         1 IS4      -0.097400
     24 C18         -4.4940   -31.8160    19.6100 cc         1 IS4      -0.353600
     25 C19         -4.6270   -33.1770    19.0950 c          1 IS4       0.667700
     26 C20         -7.4850   -31.1260    18.6420 ca         1 IS4      -0.223000
     27 C21         -8.6110   -30.8520    17.8690 ca         1 IS4       0.197100
     28 C22         -9.7960   -32.7020    18.7600 c3         1 IS4       0.147400
     29 O2          -4.0360   -34.1120    19.6390 o          1 IS4      -0.663100
     30 BR         -10.1020   -29.3840    15.9520 br         1 IS4      -0.059100
     31 H1          -2.3330   -31.6160    23.1110 h1         1 IS4       0.050200
     32 H2          -0.8370   -32.1160    22.3250 h1         1 IS4       0.050200
     33 H3          -0.8020   -30.0800    20.9640 hc         1 IS4       0.069700
     34 H4          -0.9210   -29.6580    22.6660 hc         1 IS4       0.069700
     35 H5          -2.6280   -33.1670    21.0770 hn         1 IS4       0.531000
     36 H6          -3.2720   -29.2020    22.5210 h1         1 IS4       0.064700
     37 H7          -5.4700   -28.5900    17.6520 ha         1 IS4       0.132500
     38 H8          -6.7620   -26.2150    15.2930 h1         1 IS4       0.045533
     39 H9          -6.2620   -26.5050    16.9700 h1         1 IS4       0.045533
     40 H10         -5.5650   -27.4730    15.6500 h1         1 IS4       0.045533
     41 H11         -5.4670   -34.2980    17.6160 hn         1 IS4       0.316500
     42 H12         -5.8010   -32.6180    17.4830 hn         1 IS4       0.316500
     43 H13         -3.5140   -27.4840    20.8560 hc         1 IS4       0.078700
     44 H14         -2.2940   -26.9840    22.9250 hc         1 IS4       0.052950
     45 H15         -0.7660   -27.4210    22.1710 hc         1 IS4       0.052950
     46 H16         -1.0760   -24.9750    22.0740 h1         1 IS4       0.057950
     47 H17         -2.6290   -25.1800    21.2720 h1         1 IS4       0.057950
     48 H18          0.2920   -24.9460    17.8200 hc         1 IS4       0.054700
     49 H19          1.0050   -26.4360    18.3720 hc         1 IS4       0.054700
     50 H20          2.7330   -24.9010    17.5140 hc         1 IS4       0.042033
     51 H21          2.2870   -23.6650    18.6840 hc         1 IS4       0.042033
     52 H22          3.0090   -25.1760    19.2290 hc         1 IS4       0.042033
     53 H23         -1.1920   -26.4380    18.1680 h1         1 IS4       0.057950
     54 H24         -2.6840   -26.0280    18.9830 h1         1 IS4       0.057950
     55 H25         -2.4000   -28.4700    18.8870 hc         1 IS4       0.052950
     56 H26         -0.8340   -28.3490    19.6810 hc         1 IS4       0.052950
     57 H27         -7.4790   -31.9620    19.3270 ha         1 IS4       0.132500
     58 H28        -10.7800   -33.1400    18.6140 h1         1 IS4       0.045533
     59 H29         -9.0350   -33.4480    18.5200 h1         1 IS4       0.045533
     60 H30         -9.6910   -32.4080    19.8070 h1         1 IS4       0.045533
     61 O3          -9.7290   -31.5850    17.8910 os         1 IS4      -0.322100
     62 C13          0.2820   -25.1830    19.9540 c          1 IS4       0.603100
     63 C2          -6.4710   -26.9790    16.0080 c3         1 IS4       0.147400
@<TRIPOS>BOND
     1     1     5 1   
     2     1     9 1   
     3     1    14 1   
     4     2     3 1   
     5     2     4 1   
     6     2    31 1   
     7     2    32 1   
     8     3     5 1   
     9     3    33 1   
    10     3    34 1   
    11     4     9 1   
    12     4    35 1   
    13     5    17 1   
    14     5    36 1   
    15     6    62 2   
    16     7    12 ar  
    17     7    15 ar  
    18     7    16 1   
    19     8    11 1   
    20     8    14 2   
    21     8    24 1   
    22     9    24 2   
    23    10    19 1   
    24    10    22 1   
    25    10    62 1   
    26    11    12 ar  
    27    11    26 ar  
    28    12    37 1   
    29    13    25 1   
    30    13    41 1   
    31    13    42 1   
    32    15    27 ar  
    33    15    30 1   
    34    16    63 1   
    35    17    18 1   
    36    17    23 1   
    37    17    43 1   
    38    18    19 1   
    39    18    44 1   
    40    18    45 1   
    41    19    46 1   
    42    19    47 1   
    43    20    21 1   
    44    20    48 1   
    45    20    49 1   
    46    20    62 1   
    47    21    50 1   
    48    21    51 1   
    49    21    52 1   
    50    22    23 1   
    51    22    53 1   
    52    22    54 1   
    53    23    55 1   
    54    23    56 1   
    55    24    25 1   
    56    25    29 2   
    57    26    27 ar  
    58    26    57 1   
    59    27    61 1   
    60    28    58 1   
    61    28    59 1   
    62    28    60 1   
    63    28    61 1   
    64    38    63 1   
    65    39    63 1   
    66    40    63 1   
@<TRIPOS>SUBSTRUCTURE
     1 IS4         1 TEMP              0 ****  ****    0 ROOT
