@<TRIPOS>MOLECULE
IS5
   65    67     1     0     0
SMALL
No Charge or Current Charge


@<TRIPOS>ATOM
      1 C13         11.7190    22.3740    26.3490 c3         1 IS5       0.047700
      2 C15         14.3520    22.2450    26.2030 c3         1 IS5      -0.057700
      3 C16         14.4230    21.1490    25.1130 c3         1 IS5      -0.091100
      4 C19         11.8620    24.2140    24.6160 c          1 IS5       0.639100
      5 C17         15.6240    22.2190    27.0810 c3         1 IS5      -0.091100
      6 C12         10.5160    22.0280    27.2730 c          1 IS5       0.584100
      7 C01          9.7920    18.9810    29.2510 c          1 IS5       0.562900
      8 C03          9.2350    20.0860    28.3160 c3         1 IS5      -0.020300
      9 C04          8.0830    19.5410    27.4310 c3         1 IS5      -0.066400
     10 C05          7.3020    20.6150    26.6220 c5         1 IS5      -0.158700
     11 C06          6.2300    20.0340    25.6900 c          1 IS5       0.564000
     12 C08          5.4760    22.1670    26.4340 c5         1 IS5       0.100000
     13 C09          6.4890    21.6260    27.4790 c5         1 IS5      -0.089400
     14 C14         13.0720    22.1350    27.0800 c3         1 IS5      -0.084400
     15 C21         11.8810    26.2210    23.3170 c3         1 IS5       0.212600
     16 C22         11.6080    27.7010    23.5430 cx         1 IS5      -0.127700
     17 C23         12.6480    28.5930    24.1900 cx         1 IS5      -0.071400
     18 C24         12.3100    28.7590    22.7230 cx         1 IS5      -0.110400
     19 C25         12.2830    29.6260    25.2300 ca         1 IS5      -0.016300
     20 C26         13.1430    29.8400    26.3260 ca         1 IS5      -0.146000
     21 C27         12.8230    30.7930    27.3050 ca         1 IS5       0.173000
     22 C29         11.6430    31.5450    27.2080 ca         1 IS5      -0.152000
     23 C30         10.7770    31.3400    26.1210 ca         1 IS5      -0.082000
     24 C31         11.0950    30.3860    25.1390 ca         1 IS5      -0.128000
     25 F28         13.6570    30.9880    28.3500 f          1 IS5      -0.181000
     26 N07          5.2200    20.9550    25.6590 ns         1 IS5      -0.514900
     27 N11         10.3230    20.6780    27.4960 ns         1 IS5      -0.483900
     28 N18         11.6070    23.7740    25.8830 ns         1 IS5      -0.467900
     29 O10          6.1210    18.9070    25.2330 o          1 IS5      -0.558000
     30 O20         11.6580    25.5570    24.5710 os         1 IS5      -0.449100
     31 O32         12.2100    23.5110    23.6810 o          1 IS5      -0.557000
     32 O33          9.7870    22.8770    27.7710 o          1 IS5      -0.606100
     33 H1          11.6440    21.7030    25.4840 h1         1 IS5       0.081700
     34 H2          14.3380    23.2180    25.6970 hc         1 IS5       0.050700
     35 H3          15.3410    21.2530    24.5220 hc         1 IS5       0.036200
     36 H4          14.4200    20.1490    25.5640 hc         1 IS5       0.036200
     37 H5          13.5770    21.2150    24.4210 hc         1 IS5       0.036200
     38 H6          15.6070    23.0330    27.8150 hc         1 IS5       0.036200
     39 H7          15.7070    21.2690    27.6220 hc         1 IS5       0.036200
     40 H8          16.5230    22.3420    26.4650 hc         1 IS5       0.036200
     41 H9           9.0750    18.6010    30.0120 h4         1 IS5      -0.005800
     42 H11          8.8270    20.8540    28.9860 h1         1 IS5       0.102700
     43 H12          7.3770    18.9940    28.0680 hc         1 IS5       0.061200
     44 H13          8.5020    18.7970    26.7410 hc         1 IS5       0.061200
     45 H14          7.9940    21.1790    25.9880 hc         1 IS5       0.095700
     46 H15          5.9220    22.9530    25.8100 h1         1 IS5       0.046200
     47 H16          4.5710    22.5710    26.9080 h1         1 IS5       0.046200
     48 H17          5.9640    21.1230    28.3000 hc         1 IS5       0.062700
     49 H18          7.1020    22.4200    27.9190 hc         1 IS5       0.062700
     50 H19         13.1420    22.8520    27.9080 hc         1 IS5       0.060700
     51 H20         13.0600    21.1400    27.5430 hc         1 IS5       0.060700
     52 H21         11.2060    25.8350    22.5420 h1         1 IS5       0.053200
     53 H22         12.9170    26.0780    22.9790 h1         1 IS5       0.053200
     54 H23         10.5660    27.8880    23.7930 hc         1 IS5       0.094700
     55 H24         13.6090    28.1280    24.4000 hc         1 IS5       0.089700
     56 H25         11.7370    29.6310    22.4200 hc         1 IS5       0.078200
     57 H26         13.0530    28.4360    21.9970 hc         1 IS5       0.078200
     58 H27         14.0620    29.2690    26.4240 ha         1 IS5       0.131000
     59 H28         11.4030    32.2810    27.9710 ha         1 IS5       0.133000
     60 H29          9.8590    31.9200    26.0400 ha         1 IS5       0.117000
     61 H30         10.4100    30.2430    24.3070 ha         1 IS5       0.114000
     62 H31          4.3640    20.7310    25.1640 hn         1 IS5       0.326500
     63 H32         10.9930    20.0470    27.0670 hn         1 IS5       0.324500
     64 H33         11.2830    24.4780    26.5360 hn         1 IS5       0.334500
     65 O02         10.9350    18.5360    29.1870 o          1 IS5      -0.502100
@<TRIPOS>BOND
     1     1     6 1   
     2     1    14 1   
     3     1    28 1   
     4     1    33 1   
     5     2     3 1   
     6     2     5 1   
     7     2    14 1   
     8     2    34 1   
     9     3    35 1   
    10     3    36 1   
    11     3    37 1   
    12     4    28 1   
    13     4    30 1   
    14     4    31 2   
    15     5    38 1   
    16     5    39 1   
    17     5    40 1   
    18     6    27 1   
    19     6    32 2   
    20     7     8 1   
    21     7    41 1   
    22     7    65 2   
    23     8     9 1   
    24     8    27 1   
    25     8    42 1   
    26     9    10 1   
    27     9    43 1   
    28     9    44 1   
    29    10    11 1   
    30    10    13 1   
    31    10    45 1   
    32    11    26 1   
    33    11    29 2   
    34    12    13 1   
    35    12    26 1   
    36    12    46 1   
    37    12    47 1   
    38    13    48 1   
    39    13    49 1   
    40    14    50 1   
    41    14    51 1   
    42    15    16 1   
    43    15    30 1   
    44    15    52 1   
    45    15    53 1   
    46    16    17 1   
    47    16    18 1   
    48    16    54 1   
    49    17    18 1   
    50    17    19 1   
    51    17    55 1   
    52    18    56 1   
    53    18    57 1   
    54    19    20 ar  
    55    19    24 ar  
    56    20    21 ar  
    57    20    58 1   
    58    21    22 ar  
    59    21    25 1   
    60    22    23 ar  
    61    22    59 1   
    62    23    24 ar  
    63    23    60 1   
    64    24    61 1   
    65    26    62 1   
    66    27    63 1   
    67    28    64 1   
@<TRIPOS>SUBSTRUCTURE
     1 IS5         1 TEMP              0 ****  ****    0 ROOT
