@<TRIPOS>MOLECULE
IS5
   65    67     1     0     0
SMALL
abcg2


@<TRIPOS>ATOM
      1 C13         12.1390    22.2980    26.8060 c3         1 IS5       0.047700
      2 C15         14.6980    22.2140    27.1550 c3         1 IS5      -0.057700
      3 C16         14.9160    21.3240    25.9360 c3         1 IS5      -0.091100
      4 C19         11.2860    24.0320    25.3660 c          1 IS5       0.639100
      5 C17         15.7480    21.9260    28.2250 c3         1 IS5      -0.091100
      6 C12         10.8150    22.0610    27.5380 c          1 IS5       0.584100
      7 C01          9.3110    19.3580    29.1390 c          1 IS5       0.562900
      8 C03          9.1090    20.3720    28.0400 c3         1 IS5      -0.020300
      9 C04          8.1440    19.8120    26.9870 c3         1 IS5      -0.066400
     10 C05          7.8450    20.8140    25.8860 c5         1 IS5      -0.158700
     11 C06          6.9100    20.2570    24.8220 c          1 IS5       0.564000
     12 C08          6.3780    22.5310    25.0700 c5         1 IS5       0.100000
     13 C09          7.1510    22.1050    26.3190 c5         1 IS5      -0.089400
     14 C14         13.3030    22.0410    27.7630 c3         1 IS5      -0.084400
     15 C21         10.4390    25.8900    24.1830 c3         1 IS5       0.212600
     16 C22         10.3360    27.3650    24.4010 cx         1 IS5      -0.127700
     17 C23         11.4750    28.2650    23.9970 cx         1 IS5      -0.071400
     18 C24         10.1880    28.2630    23.2200 cx         1 IS5      -0.110400
     19 C25         11.8650    29.4060    24.8580 ca         1 IS5      -0.016300
     20 C26         13.2180    29.6530    25.0790 ca         1 IS5      -0.146000
     21 C27         13.5950    30.7010    25.8960 ca         1 IS5       0.173000
     22 C29         12.6810    31.5300    26.5130 ca         1 IS5      -0.152000
     23 C30         11.3330    31.2810    26.2880 ca         1 IS5      -0.082000
     24 C31         10.9260    30.2370    25.4730 ca         1 IS5      -0.128000
     25 F28         14.9070    30.9160    26.0960 f          1 IS5      -0.181000
     26 N07          6.1050    21.2600    24.4310 ns         1 IS5      -0.514900
     27 N11         10.3510    20.8010    27.4650 ns         1 IS5      -0.483900
     28 N18         12.1840    23.6430    26.2960 ns         1 IS5      -0.467900
     29 O10          6.9040    19.1170    24.3920 o          1 IS5      -0.558000
     30 O20         11.3030    25.3530    25.1890 os         1 IS5      -0.449100
     31 O32         10.5660    23.2700    24.7530 o          1 IS5      -0.557000
     32 O33         10.2550    22.9570    28.1470 o          1 IS5      -0.606100
     33 H1          12.2070    21.6020    25.9670 h1         1 IS5       0.081700
     34 H2          14.8180    23.2570    26.8430 hc         1 IS5       0.050700
     35 H3          15.9380    21.4220    25.5670 hc         1 IS5       0.036200
     36 H4          14.7540    20.2730    26.1860 hc         1 IS5       0.036200
     37 H5          14.2490    21.5790    25.1120 hc         1 IS5       0.036200
     38 H6          15.6180    22.5670    29.0980 hc         1 IS5       0.036200
     39 H7          15.6860    20.8880    28.5620 hc         1 IS5       0.036200
     40 H8          16.7560    22.0880    27.8400 hc         1 IS5       0.036200
     41 H9           8.3690    18.9820    29.5770 h4         1 IS5      -0.005800
     42 H11          8.6390    21.2390    28.5170 h1         1 IS5       0.102700
     43 H12          7.2160    19.5210    27.4880 hc         1 IS5       0.061200
     44 H13          8.5660    18.9040    26.5500 hc         1 IS5       0.061200
     45 H14          8.7770    21.0670    25.3660 hc         1 IS5       0.095700
     46 H15          6.9850    23.1750    24.4260 h1         1 IS5       0.046200
     47 H16          5.4560    23.0600    25.3040 h1         1 IS5       0.046200
     48 H17          6.4530    21.8980    27.1340 hc         1 IS5       0.062700
     49 H18          7.8410    22.8760    26.6550 hc         1 IS5       0.062700
     50 H19         13.2040    22.7020    28.6300 hc         1 IS5       0.060700
     51 H20         13.2070    21.0190    28.1420 hc         1 IS5       0.060700
     52 H21          9.4500    25.4320    24.2450 h1         1 IS5       0.053200
     53 H22         10.8490    25.6730    23.1930 h1         1 IS5       0.053200
     54 H23          9.8030    27.6590    25.3010 hc         1 IS5       0.094700
     55 H24         12.3120    27.7690    23.5160 hc         1 IS5       0.089700
     56 H25          9.5310    29.1190    23.3070 hc         1 IS5       0.078200
     57 H26         10.2100    27.8190    22.2320 hc         1 IS5       0.078200
     58 H27         13.9750    29.0290    24.6190 ha         1 IS5       0.131000
     59 H28         13.0070    32.3440    27.1470 ha         1 IS5       0.133000
     60 H29         10.5910    31.9150    26.7560 ha         1 IS5       0.117000
     61 H30          9.8660    30.0760    25.3210 ha         1 IS5       0.114000
     62 H31          5.4790    21.1680    23.6460 hn         1 IS5       0.326500
     63 H32         10.8630    20.1270    26.9150 hn         1 IS5       0.324500
     64 H33         12.6180    24.3540    26.8660 hn         1 IS5       0.334500
     65 O02         10.3820    18.9750    29.5280 o          1 IS5      -0.502100
@<TRIPOS>BOND
     1     1     6 1   
     2     1    14 1   
     3     1    28 1   
     4     1    33 1   
     5     2     3 1   
     6     2     5 1   
     7     2    14 1   
     8     2    34 1   
     9     3    35 1   
    10     3    36 1   
    11     3    37 1   
    12     4    28 1   
    13     4    30 1   
    14     4    31 2   
    15     5    38 1   
    16     5    39 1   
    17     5    40 1   
    18     6    27 1   
    19     6    32 2   
    20     7     8 1   
    21     7    41 1   
    22     7    65 2   
    23     8     9 1   
    24     8    27 1   
    25     8    42 1   
    26     9    10 1   
    27     9    43 1   
    28     9    44 1   
    29    10    11 1   
    30    10    13 1   
    31    10    45 1   
    32    11    26 1   
    33    11    29 2   
    34    12    13 1   
    35    12    26 1   
    36    12    46 1   
    37    12    47 1   
    38    13    48 1   
    39    13    49 1   
    40    14    50 1   
    41    14    51 1   
    42    15    16 1   
    43    15    30 1   
    44    15    52 1   
    45    15    53 1   
    46    16    17 1   
    47    16    18 1   
    48    16    54 1   
    49    17    18 1   
    50    17    19 1   
    51    17    55 1   
    52    18    56 1   
    53    18    57 1   
    54    19    20 ar  
    55    19    24 ar  
    56    20    21 ar  
    57    20    58 1   
    58    21    22 ar  
    59    21    25 1   
    60    22    23 ar  
    61    22    59 1   
    62    23    24 ar  
    63    23    60 1   
    64    24    61 1   
    65    26    62 1   
    66    27    63 1   
    67    28    64 1   
@<TRIPOS>SUBSTRUCTURE
     1 IS5         1 TEMP              0 ****  ****    0 ROOT
