@<TRIPOS>MOLECULE
IS6
   28    28     1     0     0
SMALL
abcg2


@<TRIPOS>ATOM
      1 C4         -10.7860    -2.6840    -2.1920 c5         1 IS6      -0.094400
      2 C5         -10.4170    -4.0100    -1.5350 c5         1 IS6      -0.087400
      3 C6         -11.6950    -4.4040    -0.7730 c5         1 IS6       0.031700
      4 C7         -11.9030    -5.9140    -0.8310 c          1 IS6       0.612100
      5 C8         -10.7450    -6.1570     1.3780 c3         1 IS6       0.201100
      6 C9         -11.7000    -5.7770     2.4200 c1         1 IS6      -0.120100
      7 C10        -12.4840    -5.4730     3.2790 c1         1 IS6      -0.019200
      8 N1         -12.7480    -3.7070    -1.4820 n          1 IS6      -0.408800
      9 N2         -11.3710    -6.6440     0.1710 ns         1 IS6      -0.507900
     10 C3         -12.2450    -2.8850    -2.5740 c5         1 IS6       0.110000
     11 C1         -15.0560    -3.0740    -1.8880 c3         1 IS6      -0.171100
     12 C2         -14.0280    -3.8260    -1.0830 c          1 IS6       0.613100
     13 O1         -14.3230    -4.5060    -0.1070 o          1 IS6      -0.601100
     14 O2         -12.4560    -6.4380    -1.7810 o          1 IS6      -0.583100
     15 BR1        -13.6460    -5.0250     4.5490 br         1 IS6      -0.010800
     16 H1         -10.1590    -2.4500    -3.0510 hc         1 IS6       0.055700
     17 H2         -10.6970    -1.8640    -1.4760 hc         1 IS6       0.055700
     18 H3         -10.1880    -4.7520    -2.3030 hc         1 IS6       0.059200
     19 H4          -9.5560    -3.9400    -0.8710 hc         1 IS6       0.059200
     20 H5         -11.6530    -4.0480     0.2590 h1         1 IS6       0.076700
     21 H6         -10.1040    -6.9530     1.7590 h1         1 IS6       0.064200
     22 H7         -10.0760    -5.3210     1.1670 h1         1 IS6       0.064200
     23 H12        -11.5170    -7.6410     0.1130 hn         1 IS6       0.321500
     24 H13        -12.7890    -1.9450    -2.6490 h1         1 IS6       0.050200
     25 H14        -12.3340    -3.4060    -3.5330 h1         1 IS6       0.050200
     26 H15        -16.0550    -3.3550    -1.5630 hc         1 IS6       0.060033
     27 H16        -14.9420    -1.9960    -1.7520 hc         1 IS6       0.060033
     28 H17        -14.9620    -3.2760    -2.9550 hc         1 IS6       0.060033
@<TRIPOS>BOND
     1     1     2 1   
     2     1    10 1   
     3     1    16 1   
     4     1    17 1   
     5     2     3 1   
     6     2    18 1   
     7     2    19 1   
     8     3     4 1   
     9     3     8 1   
    10     3    20 1   
    11     4     9 1   
    12     4    14 2   
    13     5     6 1   
    14     5     9 1   
    15     5    21 1   
    16     5    22 1   
    17     6     7 3   
    18     7    15 1   
    19     8    10 1   
    20     8    12 1   
    21     9    23 1   
    22    10    24 1   
    23    10    25 1   
    24    11    12 1   
    25    11    26 1   
    26    11    27 1   
    27    11    28 1   
    28    12    13 2   
@<TRIPOS>SUBSTRUCTURE
     1 IS6         1 TEMP              0 ****  ****    0 ROOT
