@<TRIPOS>MOLECULE
IS6
   28    28     1     0     0
SMALL
No Charge or Current Charge


@<TRIPOS>ATOM
      1 C4         -10.7590    -2.6910    -2.0590 c5         1 IS6      -0.094400
      2 C5         -10.4870    -4.1490    -1.6190 c5         1 IS6      -0.087400
      3 C6         -11.7440    -4.4700    -0.7530 c5         1 IS6       0.031700
      4 C7         -11.9500    -6.0310    -0.7370 c          1 IS6       0.612100
      5 C8         -10.5580    -6.1130     1.4090 c3         1 IS6       0.201100
      6 C9         -11.5640    -5.7600     2.4170 c1         1 IS6      -0.120100
      7 C10        -12.4140    -5.4500     3.2190 c1         1 IS6      -0.019200
      8 N1         -12.7960    -3.7000    -1.4790 n          1 IS6      -0.408800
      9 N2         -11.2010    -6.6910     0.2230 ns         1 IS6      -0.507900
     10 C3         -12.2480    -2.7590    -2.4800 c5         1 IS6       0.110000
     11 C1         -15.1750    -3.0430    -2.0280 c3         1 IS6      -0.171100
     12 C2         -14.1650    -3.7840    -1.1490 c          1 IS6       0.613100
     13 O1         -14.5420    -4.4460    -0.1910 o          1 IS6      -0.601100
     14 O2         -12.6380    -6.6770    -1.5170 o          1 IS6      -0.583100
     15 Br1        -13.6830    -4.9850     4.3950 br         1 IS6      -0.010800
     16 H1         -10.1070    -2.3630    -2.8760 hc         1 IS6       0.055700
     17 H2         -10.6180    -1.9940    -1.2240 hc         1 IS6       0.055700
     18 H3         -10.4200    -4.8100    -2.4930 hc         1 IS6       0.059200
     19 H4          -9.5500    -4.2540    -1.0600 hc         1 IS6       0.059200
     20 H5         -11.6530    -4.0770     0.2650 h1         1 IS6       0.076700
     21 H6          -9.8740    -6.8580     1.8360 h1         1 IS6       0.064200
     22 H7          -9.9650    -5.2310     1.1380 h1         1 IS6       0.064200
     23 H12        -11.2750    -7.7000     0.1920 hn         1 IS6       0.321500
     24 H13        -12.7210    -1.7690    -2.4410 h1         1 IS6       0.050200
     25 H14        -12.3630    -3.1650    -3.4950 h1         1 IS6       0.050200
     26 H15        -16.2120    -3.2690    -1.7550 hc         1 IS6       0.060033
     27 H16        -14.9810    -1.9670    -1.9610 hc         1 IS6       0.060033
     28 H17        -14.9720    -3.2620    -3.0820 hc         1 IS6       0.060033
@<TRIPOS>BOND
     1     1     2 1   
     2     1    10 1   
     3     1    16 1   
     4     1    17 1   
     5     2     3 1   
     6     2    18 1   
     7     2    19 1   
     8     3     4 1   
     9     3     8 1   
    10     3    20 1   
    11     4     9 1   
    12     4    14 2   
    13     5     6 1   
    14     5     9 1   
    15     5    21 1   
    16     5    22 1   
    17     6     7 3   
    18     7    15 1   
    19     8    10 1   
    20     8    12 1   
    21     9    23 1   
    22    10    24 1   
    23    10    25 1   
    24    11    12 1   
    25    11    26 1   
    26    11    27 1   
    27    11    28 1   
    28    12    13 2   
@<TRIPOS>SUBSTRUCTURE
     1 IS6         1 TEMP              0 ****  ****    0 ROOT
