@<TRIPOS>MOLECULE
IS7
   23    24     1     0     0
SMALL
No Charge or Current Charge


@<TRIPOS>ATOM
      1 C2         -13.1730   -22.3130    -3.9860 c5         1 IS7      -0.115100
      2 C1         -13.2820   -22.9840    -5.3880 c          1 IS7       0.562000
      3 O          -13.9460   -22.6430    -6.3590 o          1 IS7      -0.529000
      4 C3         -12.0970   -23.1270    -3.2890 ca         1 IS7      -0.139300
      5 C9         -11.6490   -24.1290    -4.1220 ca         1 IS7      -0.031000
      6 N          -12.3790   -24.0670    -5.3310 n          1 IS7      -0.218400
      7 C          -12.0660   -24.9040    -6.5030 c3         1 IS7       0.097300
      8 C8         -10.7400   -25.1010    -3.6830 ca         1 IS7      -0.139000
      9 C7         -10.2210   -24.9810    -2.3770 ca         1 IS7      -0.078000
     10 C5         -10.6400   -23.9270    -1.5290 ca         1 IS7      -0.104300
     11 C6         -10.0810   -23.8170    -0.1180 c3         1 IS7      -0.041800
     12 C4         -11.6010   -22.9960    -1.9840 ca         1 IS7      -0.059000
     13 H1         -12.9380   -21.2510    -4.1110 hc         1 IS7       0.089200
     14 H2         -14.1490   -22.3710    -3.4950 hc         1 IS7       0.089200
     15 H3         -12.0170   -25.9570    -6.2010 h1         1 IS7       0.047367
     16 H4         -12.8400   -24.7940    -7.2730 h1         1 IS7       0.047367
     17 H5         -11.0970   -24.6020    -6.9200 h1         1 IS7       0.047367
     18 H6         -10.4340   -25.9210    -4.3280 ha         1 IS7       0.122000
     19 H7          -9.5010   -25.7140    -2.0190 ha         1 IS7       0.113000
     20 H8         -10.0810   -22.7780     0.2330 hc         1 IS7       0.041700
     21 H9         -10.6790   -24.4080     0.5860 hc         1 IS7       0.041700
     22 H10         -9.0480   -24.1800    -0.0680 hc         1 IS7       0.041700
     23 H11        -11.9600   -22.2000    -1.3340 ha         1 IS7       0.116000
@<TRIPOS>BOND
     1     1     2 1   
     2     1     4 1   
     3     1    13 1   
     4     1    14 1   
     5     2     3 2   
     6     2     6 1   
     7     4     5 ar  
     8     4    12 ar  
     9     5     6 1   
    10     5     8 ar  
    11     6     7 1   
    12     7    15 1   
    13     7    16 1   
    14     7    17 1   
    15     8     9 ar  
    16     8    18 1   
    17     9    10 ar  
    18     9    19 1   
    19    10    11 1   
    20    10    12 ar  
    21    11    20 1   
    22    11    21 1   
    23    11    22 1   
    24    12    23 1   
@<TRIPOS>SUBSTRUCTURE
     1 IS7         1 TEMP              0 ****  ****    0 ROOT
