@<TRIPOS>MOLECULE
IS7
   23    24     1     0     0
SMALL
abcg2


@<TRIPOS>ATOM
      1 C2         -13.1390   -22.3230    -3.9990 c5         1 IS7      -0.115100
      2 C1         -13.1950   -22.9930    -5.3620 c          1 IS7       0.562000
      3 O          -13.8820   -22.6750    -6.3110 o          1 IS7      -0.529000
      4 C3         -12.1280   -23.1370    -3.2590 ca         1 IS7      -0.139300
      5 C9         -11.6700   -24.1390    -4.1140 ca         1 IS7      -0.031000
      6 N          -12.3220   -24.0420    -5.3430 n          1 IS7      -0.218400
      7 C          -12.0910   -24.9020    -6.4770 c3         1 IS7       0.097300
      8 C8         -10.7070   -25.0410    -3.7070 ca         1 IS7      -0.139000
      9 C7         -10.2170   -24.9240    -2.4060 ca         1 IS7      -0.078000
     10 C5         -10.6610   -23.9390    -1.5300 ca         1 IS7      -0.104300
     11 C6         -10.1320   -23.8490    -0.1270 c3         1 IS7      -0.041800
     12 C4         -11.6300   -23.0320    -1.9800 ca         1 IS7      -0.059000
     13 H1         -12.8470   -21.2760    -4.1150 hc         1 IS7       0.089200
     14 H2         -14.1290   -22.3260    -3.5370 hc         1 IS7       0.089200
     15 H3         -11.7630   -25.8810    -6.1360 h1         1 IS7       0.047367
     16 H4         -13.0140   -25.0290    -7.0370 h1         1 IS7       0.047367
     17 H5         -11.3290   -24.4930    -7.1420 h1         1 IS7       0.047367
     18 H6         -10.3270   -25.8140    -4.3620 ha         1 IS7       0.122000
     19 H7          -9.4630   -25.6260    -2.0720 ha         1 IS7       0.113000
     20 H8          -9.9220   -22.8170     0.1560 hc         1 IS7       0.041700
     21 H9         -10.8540   -24.2370     0.5940 hc         1 IS7       0.041700
     22 H10         -9.2130   -24.4230    -0.0090 hc         1 IS7       0.041700
     23 H11        -11.9840   -22.2470    -1.3210 ha         1 IS7       0.116000
@<TRIPOS>BOND
     1     1     2 1   
     2     1     4 1   
     3     1    13 1   
     4     1    14 1   
     5     2     3 2   
     6     2     6 1   
     7     4     5 ar  
     8     4    12 ar  
     9     5     6 1   
    10     5     8 ar  
    11     6     7 1   
    12     7    15 1   
    13     7    16 1   
    14     7    17 1   
    15     8     9 ar  
    16     8    18 1   
    17     9    10 ar  
    18     9    19 1   
    19    10    11 1   
    20    10    12 ar  
    21    11    20 1   
    22    11    21 1   
    23    11    22 1   
    24    12    23 1   
@<TRIPOS>SUBSTRUCTURE
     1 IS7         1 TEMP              0 ****  ****    0 ROOT
