@<TRIPOS>MOLECULE
IS8
    4     3     1     0     0
SMALL
No Charge or Current Charge


@<TRIPOS>ATOM
      1 S           -1.0840    -0.1090     0.0090 s          1 IS8      -0.163000
      2 C            0.5030     0.0130    -0.0230 c1         1 IS8       0.381400
      3 N            1.6990     0.0160    -0.0550 n2         1 IS8      -0.777800
      4 H1           2.3590     0.8160     0.0050 hn         1 IS8       0.558400
@<TRIPOS>BOND
     1     1     2 2   
     2     2     3 2   
     3     3     4 1   
@<TRIPOS>SUBSTRUCTURE
     1 IS8         1 TEMP              0 ****  ****    0 ROOT
