@<TRIPOS>MOLECULE
IS8
    4     3     1     0     0
SMALL
bcc


@<TRIPOS>ATOM
      1 S           -1.0870    -0.1620     0.0040 s          1 IS8      -0.385900
      2 C            0.4760     0.0490    -0.0180 c1         1 IS8       0.604300
      3 N            1.6550     0.1080    -0.0450 n2         1 IS8      -0.777800
      4 H1           2.4330     0.7410    -0.0050 hn         1 IS8       0.558400
@<TRIPOS>BOND
     1     1     2 2   
     2     2     3 2   
     3     3     4 1   
@<TRIPOS>SUBSTRUCTURE
     1 IS8         1 TEMP              0 ****  ****    0 ROOT
