@<TRIPOS>MOLECULE
IS9
   13    12     1     0     0
SMALL
No Charge or Current Charge


@<TRIPOS>ATOM
      1 C1          22.1110    63.0570    82.8530 c3         1 IS9       0.070800
      2 C2          22.0270    64.5570    80.8320 c3         1 IS9       0.070800
      3 S1          24.1720    64.6500    84.3430 sh         1 IS9      -0.310400
      4 C           23.5580    65.1160    82.7210 cs         1 IS9       0.419000
      5 S           24.1570    66.5020    81.9970 s          1 IS9      -0.591400
      6 N           22.6080    64.2760    82.1660 n          1 IS9      -0.293800
      7 H1          21.6480    63.3330    83.8090 h1         1 IS9       0.061367
      8 H2          21.3630    62.5340    82.2450 h1         1 IS9       0.061367
      9 H3          22.9470    62.3710    83.0410 h1         1 IS9       0.061367
     10 H4          21.2930    63.7950    80.5450 h1         1 IS9       0.061367
     11 H5          21.5290    65.5350    80.8470 h1         1 IS9       0.061367
     12 H6          22.8250    64.5750    80.0800 h1         1 IS9       0.061367
     13 H7          24.9970    65.7210    84.3960 hs         1 IS9       0.266800
@<TRIPOS>BOND
     1     1     6 1   
     2     1     7 1   
     3     1     8 1   
     4     1     9 1   
     5     2     6 1   
     6     2    10 1   
     7     2    11 1   
     8     2    12 1   
     9     3     4 1   
    10     3    13 1   
    11     4     5 2   
    12     4     6 1   
@<TRIPOS>SUBSTRUCTURE
     1 IS9         1 TEMP              0 ****  ****    0 ROOT
