@<TRIPOS>MOLECULE
IS9
   13    12     1     0     0
SMALL
abcg2


@<TRIPOS>ATOM
      1 C1          22.1240    63.0740    82.8430 c3         1 IS9       0.070800
      2 C2          22.1690    64.4720    80.8090 c3         1 IS9       0.070800
      3 S1          23.9530    64.7960    84.4180 sh         1 IS9      -0.310400
      4 C           23.4610    65.1520    82.7410 cs         1 IS9       0.419000
      5 S           24.0520    66.5160    81.9530 s          1 IS9      -0.591400
      6 N           22.6220    64.2820    82.1880 n          1 IS9      -0.293800
      7 H1          22.4390    63.0250    83.8800 h1         1 IS9       0.061367
      8 H2          21.0350    63.0720    82.8090 h1         1 IS9       0.061367
      9 H3          22.4990    62.1940    82.3180 h1         1 IS9       0.061367
     10 H4          21.4550    63.6860    80.5780 h1         1 IS9       0.061367
     11 H5          21.6950    65.4460    80.6980 h1         1 IS9       0.061367
     12 H6          23.0130    64.4150    80.1210 h1         1 IS9       0.061367
     13 H7          24.7200    65.8910    84.5180 hs         1 IS9       0.266800
@<TRIPOS>BOND
     1     1     6 1   
     2     1     7 1   
     3     1     8 1   
     4     1     9 1   
     5     2     6 1   
     6     2    10 1   
     7     2    11 1   
     8     2    12 1   
     9     3     4 1   
    10     3    13 1   
    11     4     5 2   
    12     4     6 1   
@<TRIPOS>SUBSTRUCTURE
     1 IS9         1 TEMP              0 ****  ****    0 ROOT
