@<TRIPOS>MOLECULE
ISA
   21    21     1     0     0
SMALL
No Charge or Current Charge


@<TRIPOS>ATOM
      1 I            0.0450    -0.2110    -3.6090 i          1 ISA      -0.369000
      2 CZ           0.2460     0.1360    -1.4800 ca         1 ISA       0.189000
      3 CE1         -0.6000     1.0530    -0.8370 ca         1 ISA      -0.090000
      4 CD1         -0.4710     1.2790     0.5450 ca         1 ISA      -0.106000
      5 CE2          1.2220    -0.5560    -0.7470 ca         1 ISA      -0.090000
      6 CD2          1.3520    -0.3310     0.6360 ca         1 ISA      -0.106000
      7 CG           0.5050     0.5860     1.2900 ca         1 ISA      -0.028300
      8 C4           0.6510     0.8270     2.7890 c3         1 ISA      -0.027100
      9 C3           0.1340    -0.3560     3.6440 c3         1 ISA      -0.008700
     10 S3          -1.7040    -0.6740     3.4140 sh         1 ISA      -0.545800
     11 C2           0.5060    -0.1730     5.1490 c          1 ISA       0.724000
     12 O3           0.1150     0.8300     5.7340 o          1 ISA      -0.713500
     13 O2           1.1580    -1.0540     5.6940 o          1 ISA      -0.713500
     14 HE1         -1.3550     1.5870    -1.4090 ha         1 ISA       0.113000
     15 HD1         -1.1320     1.9880     1.0370 ha         1 ISA       0.119000
     16 HE2          1.8760    -1.2650    -1.2480 ha         1 ISA       0.113000
     17 HD2          2.1120    -0.8700     1.1980 ha         1 ISA       0.119000
     18 H41          0.1240     1.7430     3.0840 hc         1 ISA       0.060200
     19 H42          1.7080     0.9980     3.0260 hc         1 ISA       0.060200
     20 H3           0.6570    -1.2600     3.3080 h1         1 ISA       0.069700
     21 HS3         -2.1200     0.4450     4.0610 hs         1 ISA       0.229800
@<TRIPOS>BOND
     1     1     2 1   
     2     2     3 ar  
     3     2     5 ar  
     4     3     4 ar  
     5     3    14 1   
     6     4     7 ar  
     7     4    15 1   
     8     5     6 ar  
     9     5    16 1   
    10     6     7 ar  
    11     6    17 1   
    12     7     8 1   
    13     8     9 1   
    14     8    18 1   
    15     8    19 1   
    16     9    10 1   
    17     9    11 1   
    18     9    20 1   
    19    10    21 1   
    20    11    12 1   
    21    11    13 1   
@<TRIPOS>SUBSTRUCTURE
     1 ISA         1 TEMP              0 ****  ****    0 ROOT
