@<TRIPOS>MOLECULE
ISA
   21    21     1     0     0
SMALL
bcc


@<TRIPOS>ATOM
      1 I            0.0210    -0.2200    -3.5030 i          1 ISA      -0.231900
      2 CZ           0.2410     0.1240    -1.4370 ca         1 ISA       0.051900
      3 CE1         -0.6650     0.9430    -0.7800 ca         1 ISA      -0.108000
      4 CD1         -0.5100     1.1650     0.5820 ca         1 ISA      -0.124000
      5 CE2          1.2930    -0.4670    -0.7540 ca         1 ISA      -0.108000
      6 CD2          1.4300    -0.2280     0.6070 ca         1 ISA      -0.124000
      7 CG           0.5360     0.5880     1.2960 ca         1 ISA      -0.028300
      8 C4           0.6900     0.8040     2.7730 c3         1 ISA      -0.027100
      9 C3           0.1240    -0.3440     3.6090 c3         1 ISA      -0.056600
     10 S3          -1.6880    -0.5060     3.4100 sh         1 ISA      -0.497900
     11 C2           0.4420    -0.2080     5.1170 c          1 ISA       0.934600
     12 O3           0.3490     0.9390     5.5930 o          1 ISA      -0.818800
     13 O2           0.7400    -1.2540     5.7200 o          1 ISA      -0.818800
     14 HE1         -1.4870     1.4070    -1.3090 ha         1 ISA       0.131000
     15 HD1         -1.2200     1.8040     1.0920 ha         1 ISA       0.137000
     16 HE2          2.0060    -1.1020    -1.2620 ha         1 ISA       0.131000
     17 HD2          2.2570    -0.6850     1.1370 ha         1 ISA       0.137000
     18 H41          0.2150     1.7370     3.0760 hc         1 ISA       0.060200
     19 H42          1.7540     0.9020     3.0110 hc         1 ISA       0.060200
     20 H3           0.5120    -1.2970     3.2400 h1         1 ISA       0.069700
     21 HS3         -2.0110     0.6200     4.0600 hs         1 ISA       0.229800
@<TRIPOS>BOND
     1     1     2 1   
     2     2     3 ar  
     3     2     5 ar  
     4     3     4 ar  
     5     3    14 1   
     6     4     7 ar  
     7     4    15 1   
     8     5     6 ar  
     9     5    16 1   
    10     6     7 ar  
    11     6    17 1   
    12     7     8 1   
    13     8     9 1   
    14     8    18 1   
    15     8    19 1   
    16     9    10 1   
    17     9    11 1   
    18     9    20 1   
    19    10    21 1   
    20    11    12 1   
    21    11    13 1   
@<TRIPOS>SUBSTRUCTURE
     1 ISA         1 TEMP              0 ****  ****    0 ROOT
