@<TRIPOS>MOLECULE
ISC
   24    24     1     0     0
SMALL
No Charge or Current Charge


@<TRIPOS>ATOM
      1 C            2.9170     1.2160    -0.0220 c          1 ISC       0.715200
      2 C1           2.0120     0.0330    -0.2600 ce         1 ISC      -0.167400
      3 O1           3.5050     1.7060    -0.9760 o          1 ISC      -0.740000
      4 C2           1.2650    -0.5500     0.9590 c6         1 ISC       0.215500
      5 O2           3.0570     1.6340     1.1180 o          1 ISC      -0.740000
      6 C3          -0.1230    -1.1600     0.5460 c6         1 ISC       0.187500
      7 O3           2.1070    -1.5520     1.5640 oh         1 ISC      -0.705000
      8 C4           0.0100    -1.9910    -0.7340 c2         1 ISC      -0.246200
      9 C5           0.9190    -1.6740    -1.6820 cf         1 ISC      -0.165000
     10 C6           1.8340    -0.5610    -1.4850 cf         1 ISC      -0.205000
     11 C7          -3.2900     0.9140    -0.1460 c          1 ISC       0.723200
     12 O4          -4.5070     0.7990    -0.2540 o          1 ISC      -0.712500
     13 O5          -2.7240     1.9880    -0.3200 o          1 ISC      -0.712500
     14 C9          -3.0110    -1.5530     0.4410 c2         1 ISC      -0.516000
     15 O6          -1.0750    -0.0910     0.3200 os         1 ISC      -0.304100
     16 H2           1.0600     0.2500     1.6860 h1         1 ISC       0.068700
     17 H3          -0.4790    -1.7820     1.3790 h1         1 ISC       0.041700
     18 HO3          2.9510    -1.0940     1.7740 ho         1 ISC       0.479000
     19 H4          -0.6780    -2.8230    -0.8740 ha         1 ISC       0.155000
     20 H5           0.9760    -2.2400    -2.6140 ha         1 ISC       0.134000
     21 H6           2.3840    -0.1910    -2.3530 ha         1 ISC       0.173000
     22 H1          -2.4390    -2.4390     0.7080 ha         1 ISC       0.145500
     23 H3'A        -4.0880    -1.6980     0.3560 ha         1 ISC       0.145500
     24 C8          -2.4490    -0.3270     0.2250 ce         1 ISC       0.030900
@<TRIPOS>BOND
     1     1     2 1   
     2     1     3 1   
     3     1     5 1   
     4     2     4 1   
     5     2    10 2   
     6     4     6 1   
     7     4     7 1   
     8     4    16 1   
     9     6     8 1   
    10     6    15 1   
    11     6    17 1   
    12     7    18 1   
    13     8     9 2   
    14     8    19 1   
    15     9    10 1   
    16     9    20 1   
    17    10    21 1   
    18    11    12 1   
    19    11    13 1   
    20    11    24 1   
    21    14    22 1   
    22    14    23 1   
    23    14    24 2   
    24    15    24 1   
@<TRIPOS>SUBSTRUCTURE
     1 ISC         1 TEMP              0 ****  ****    0 ROOT
