@<TRIPOS>MOLECULE
ISC
   24    24     1     0     0
SMALL
bcc


@<TRIPOS>ATOM
      1 C            3.1380     0.9950     0.0030 c          1 ISC       0.925800
      2 C1           2.0060     0.0430    -0.3150 ce         1 ISC      -0.167400
      3 O1           3.7210     1.5520    -0.9390 o          1 ISC      -0.845300
      4 C2           1.1170    -0.3660     0.8260 c6         1 ISC       0.192300
      5 O2           3.4140     1.1030     1.2230 o          1 ISC      -0.845300
      6 C3          -0.1600    -1.0980     0.4020 c6         1 ISC       0.164300
      7 O3           1.8420    -1.2030     1.7040 oh         1 ISC      -0.642800
      8 C4          -0.0030    -1.9350    -0.8350 c2         1 ISC      -0.196200
      9 C5           0.9400    -1.6370    -1.7280 cf         1 ISC      -0.115000
     10 C6           1.9010    -0.5680    -1.5000 cf         1 ISC      -0.155000
     11 C7          -3.3410     0.8240     0.0050 c          1 ISC       0.933800
     12 O4          -4.5670     0.6290     0.0700 o          1 ISC      -0.817800
     13 O5          -2.7460     1.8930    -0.2000 o          1 ISC      -0.817800
     14 C9          -2.9490    -1.6170     0.4820 c2         1 ISC      -0.416000
     15 O6          -1.1360    -0.0850     0.1570 os         1 ISC      -0.280900
     16 H2           0.7760     0.5380     1.3560 h1         1 ISC       0.068700
     17 H3          -0.4810    -1.7130     1.2530 h1         1 ISC       0.041700
     18 HO3          2.6060    -0.6630     1.9600 ho         1 ISC       0.440000
     19 H4          -0.7110    -2.7320    -1.0130 ha         1 ISC       0.105000
     20 H5           1.0040    -2.1950    -2.6550 ha         1 ISC       0.084000
     21 H6           2.5760    -0.3060    -2.3060 ha         1 ISC       0.123000
     22 H1          -2.3540    -2.5060     0.6450 ha         1 ISC       0.095500
     23 H3'A        -4.0130    -1.7360     0.5320 ha         1 ISC       0.095500
     24 C8          -2.4460    -0.4040     0.2270 ce         1 ISC       0.030900
@<TRIPOS>BOND
     1     1     2 1   
     2     1     3 1   
     3     1     5 1   
     4     2     4 1   
     5     2    10 2   
     6     4     6 1   
     7     4     7 1   
     8     4    16 1   
     9     6     8 1   
    10     6    15 1   
    11     6    17 1   
    12     7    18 1   
    13     8     9 2   
    14     8    19 1   
    15     9    10 1   
    16     9    20 1   
    17    10    21 1   
    18    11    12 1   
    19    11    13 1   
    20    11    24 1   
    21    14    22 1   
    22    14    23 1   
    23    14    24 2   
    24    15    24 1   
@<TRIPOS>SUBSTRUCTURE
     1 ISC         1 TEMP              0 ****  ****    0 ROOT
