@<TRIPOS>MOLECULE
ISD
   20    20     1     0     0
SMALL
No Charge or Current Charge


@<TRIPOS>ATOM
      1 O6           2.2460    -2.1460    -0.2360 o          1 ISD      -0.485000
      2 C5           1.5650    -1.1650     0.0250 c          1 ISD       0.648300
      3 C4           1.9130     0.2550    -0.2270 ce         1 ISD      -0.154100
      4 O8           3.1130     0.6210    -0.7910 oh         1 ISD      -0.515100
      5 C3           0.9380     1.0620     0.1790 c2         1 ISD       0.084900
      6 O7           0.9560     2.4050     0.1250 oh         1 ISD      -0.483100
      7 O1           0.3320    -1.1860     0.6190 os         1 ISD      -0.418100
      8 C2          -0.1870     0.1820     0.7380 c5         1 ISD       0.169500
      9 C9          -1.5340     0.2970    -0.0400 c3         1 ISD       0.171300
     10 O11         -2.1470     1.5810     0.1850 oh         1 ISD      -0.621000
     11 C13         -2.5690    -0.7930     0.3480 c3         1 ISD       0.130600
     12 O14         -3.8150    -0.5570    -0.3340 oh         1 ISD      -0.646000
     13 HO8          3.6230    -0.2040    -0.9740 ho         1 ISD       0.481000
     14 HO7          1.8170     2.6490    -0.2810 ho         1 ISD       0.491000
     15 H2          -0.3680     0.3960     1.8000 h1         1 ISD       0.090700
     16 H9          -1.3080     0.1710    -1.1080 h1         1 ISD       0.102700
     17 HO11        -3.0960     1.4420    -0.0370 ho         1 ISD       0.442000
     18 H131        -2.1720    -1.7810     0.0770 h1         1 ISD       0.030700
     19 H132        -2.7200    -0.7820     1.4360 h1         1 ISD       0.030700
     20 HO14        -4.4160    -1.3030    -0.1070 ho         1 ISD       0.447000
@<TRIPOS>BOND
     1     1     2 2   
     2     2     3 1   
     3     2     7 1   
     4     3     4 1   
     5     3     5 2   
     6     4    13 1   
     7     5     6 1   
     8     5     8 1   
     9     6    14 1   
    10     7     8 1   
    11     8     9 1   
    12     8    15 1   
    13     9    10 1   
    14     9    11 1   
    15     9    16 1   
    16    10    17 1   
    17    11    12 1   
    18    11    18 1   
    19    11    19 1   
    20    12    20 1   
@<TRIPOS>SUBSTRUCTURE
     1 ISD         1 TEMP              0 ****  ****    0 ROOT
