@<TRIPOS>MOLECULE
ISD
   20    20     1     0     0
SMALL
abcg2


@<TRIPOS>ATOM
      1 O6           2.1700    -2.1420    -0.2560 o          1 ISD      -0.485000
      2 C5           1.5220    -1.1520    -0.0290 c          1 ISD       0.648300
      3 C4           1.8800     0.2400    -0.2230 ce         1 ISD      -0.154100
      4 O8           3.0450     0.6640    -0.7500 oh         1 ISD      -0.515100
      5 C3           0.8550     0.9970     0.1950 c2         1 ISD       0.084900
      6 O7           0.7220     2.3100     0.2620 oh         1 ISD      -0.483100
      7 O1           0.2860    -1.2100     0.5050 os         1 ISD      -0.418100
      8 C2          -0.2610     0.1000     0.6340 c5         1 ISD       0.169500
      9 C9          -1.5390     0.2050    -0.2160 c3         1 ISD       0.171300
     10 O11         -2.0180     1.5210    -0.2140 oh         1 ISD      -0.621000
     11 C13         -2.5860    -0.7920     0.2600 c3         1 ISD       0.130600
     12 O14         -3.6970    -0.7000    -0.5970 oh         1 ISD      -0.646000
     13 HO8          3.7510     0.0430    -0.5350 ho         1 ISD       0.481000
     14 HO7          1.5360     2.7500    -0.0180 ho         1 ISD       0.491000
     15 H2          -0.4970     0.2710     1.6920 h1         1 ISD       0.090700
     16 H9          -1.2720    -0.0230    -1.2540 h1         1 ISD       0.102700
     17 HO11        -2.3510     1.7370     0.6640 ho         1 ISD       0.442000
     18 H131        -2.1570    -1.8000     0.2620 h1         1 ISD       0.030700
     19 H132        -2.8540    -0.5560     1.3010 h1         1 ISD       0.030700
     20 HO14        -4.3630    -1.3200    -0.2880 ho         1 ISD       0.447000
@<TRIPOS>BOND
     1     1     2 2   
     2     2     3 1   
     3     2     7 1   
     4     3     4 1   
     5     3     5 2   
     6     4    13 1   
     7     5     6 1   
     8     5     8 1   
     9     6    14 1   
    10     7     8 1   
    11     8     9 1   
    12     8    15 1   
    13     9    10 1   
    14     9    11 1   
    15     9    16 1   
    16    10    17 1   
    17    11    12 1   
    18    11    18 1   
    19    11    19 1   
    20    12    20 1   
@<TRIPOS>SUBSTRUCTURE
     1 ISD         1 TEMP              0 ****  ****    0 ROOT
