@<TRIPOS>MOLECULE
ISE
   22    22     1     0     0
SMALL
No Charge or Current Charge


@<TRIPOS>ATOM
      1 C1          -1.2350     0.8090     0.3250 c6         1 ISE       0.035300
      2 O1          -2.3460     1.5950    -0.1930 oh         1 ISE      -0.702500
      3 C2           0.1480     1.4880     0.0620 c          1 ISE       0.503100
      4 O2           0.2560     2.7080     0.1490 o          1 ISE      -0.484100
      5 C3           1.3980     0.5810     0.3090 c6         1 ISE       0.035300
      6 O3           2.6200     1.1650    -0.2270 oh         1 ISE      -0.702500
      7 C4           1.2290    -0.8710    -0.2230 c6         1 ISE       0.166800
      8 O4           2.3820    -1.6250     0.1940 oh         1 ISE      -0.709500
      9 C5          -0.1160    -1.5080     0.2630 c6         1 ISE       0.182300
     10 O5          -0.2980    -2.8490    -0.2340 oh         1 ISE      -0.694000
     11 C6          -1.3020    -0.6340    -0.2360 c6         1 ISE       0.166800
     12 O6          -2.5600    -1.2250     0.1320 oh         1 ISE      -0.709500
     13 H1          -1.3070     0.7420     1.4220 h1         1 ISE       0.059200
     14 HO1         -2.1700     2.5420     0.0370 ho         1 ISE       0.522500
     15 H3           1.4700     0.5190     1.4060 h1         1 ISE       0.059200
     16 HO3          2.6050     2.1310    -0.0100 ho         1 ISE       0.522500
     17 H4           1.1980    -0.8250    -1.3230 h1         1 ISE       0.061700
     18 HO4          3.1310    -0.9870     0.0950 ho         1 ISE       0.525500
     19 H5          -0.1250    -1.5140     1.3630 h1         1 ISE       0.051700
     20 HO5         -1.2750    -2.9890    -0.1870 ho         1 ISE       0.522000
     21 H6          -1.2360    -0.5680    -1.3340 h1         1 ISE       0.061700
     22 HO6         -3.2070    -0.4800     0.0610 ho         1 ISE       0.525500
@<TRIPOS>BOND
     1     1     2 1   
     2     1     3 1   
     3     1    11 1   
     4     1    13 1   
     5     2    14 1   
     6     3     4 2   
     7     3     5 1   
     8     5     6 1   
     9     5     7 1   
    10     5    15 1   
    11     6    16 1   
    12     7     8 1   
    13     7     9 1   
    14     7    17 1   
    15     8    18 1   
    16     9    10 1   
    17     9    11 1   
    18     9    19 1   
    19    10    20 1   
    20    11    12 1   
    21    11    21 1   
    22    12    22 1   
@<TRIPOS>SUBSTRUCTURE
     1 ISE         1 TEMP              0 ****  ****    0 ROOT
