@<TRIPOS>MOLECULE
ISE
   22    22     1     0     0
SMALL
bcc


@<TRIPOS>ATOM
      1 C1          -1.1950     0.8830     0.3810 c6         1 ISE       0.012100
      2 O1          -2.2790     1.6290    -0.0840 oh         1 ISE      -0.580300
      3 C2           0.1410     1.4800    -0.0160 c          1 ISE       0.503100
      4 O2           0.2410     2.5470    -0.5660 o          1 ISE      -0.484100
      5 C3           1.3420     0.6310     0.3520 c6         1 ISE       0.012100
      6 O3           2.5400     1.1560    -0.1360 oh         1 ISE      -0.580300
      7 C4           1.1900    -0.7840    -0.2160 c6         1 ISE       0.143600
      8 O4           2.2280    -1.6130     0.2320 oh         1 ISE      -0.587300
      9 C5          -0.1280    -1.4020     0.2260 c6         1 ISE       0.159100
     10 O5          -0.2180    -2.6750    -0.3530 oh         1 ISE      -0.571800
     11 C6          -1.3080    -0.5290    -0.1970 c6         1 ISE       0.143600
     12 O6          -2.4720    -1.1710     0.2560 oh         1 ISE      -0.587300
     13 H1          -1.1940     0.8020     1.4810 h1         1 ISE       0.059200
     14 HO1         -2.2700     2.4940     0.3370 ho         1 ISE       0.423500
     15 H3           1.3500     0.5490     1.4520 h1         1 ISE       0.059200
     16 HO3          2.7690     1.9460     0.3640 ho         1 ISE       0.423500
     17 H4           1.1900    -0.7120    -1.3160 h1         1 ISE       0.061700
     18 HO4          3.0620    -1.2430    -0.0740 ho         1 ISE       0.426500
     19 H5          -0.1280    -1.4700     1.3270 h1         1 ISE       0.051700
     20 HO5         -1.0660    -3.0550    -0.0970 ho         1 ISE       0.423000
     21 H6          -1.3050    -0.4510    -1.2950 h1         1 ISE       0.061700
     22 HO6         -3.2310    -0.8040    -0.2080 ho         1 ISE       0.426500
@<TRIPOS>BOND
     1     1     2 1   
     2     1     3 1   
     3     1    11 1   
     4     1    13 1   
     5     2    14 1   
     6     3     4 2   
     7     3     5 1   
     8     5     6 1   
     9     5     7 1   
    10     5    15 1   
    11     6    16 1   
    12     7     8 1   
    13     7     9 1   
    14     7    17 1   
    15     8    18 1   
    16     9    10 1   
    17     9    11 1   
    18     9    19 1   
    19    10    20 1   
    20    11    12 1   
    21    11    21 1   
    22    12    22 1   
@<TRIPOS>SUBSTRUCTURE
     1 ISE         1 TEMP              0 ****  ****    0 ROOT
