@<TRIPOS>MOLECULE
ISF
   29    30     1     0     0
SMALL
No Charge or Current Charge


@<TRIPOS>ATOM
      1 S1          -0.5060     1.0820     0.8830 ss         1 ISF       0.380000
      2 C2          -2.0880     0.3470     0.6150 cc         1 ISF      -0.295600
      3 C3          -2.5790    -0.2300     1.7660 cd         1 ISF      -0.099000
      4 C4          -1.7270    -0.0510     2.8910 cd         1 ISF      -0.113000
      5 C5          -0.5800     0.6340     2.5850 cc         1 ISF       0.008000
      6 I1           0.9900     1.1180     3.9380 i          1 ISF      -0.268000
      7 C6          -2.7020     0.1820    -0.7190 c          1 ISF       0.626300
      8 O7          -3.9120     0.0350    -0.8500 o          1 ISF      -0.541100
      9 C8          -1.7800     0.0030    -1.9050 ca         1 ISF      -0.216600
     10 C9          -2.1740     0.4920    -3.1680 ca         1 ISF      -0.076500
     11 C10         -1.3440     0.3270    -4.2900 ca         1 ISF      -0.116500
     12 C11         -0.1120    -0.3450    -4.1820 ca         1 ISF       0.046700
     13 C12          0.2730    -0.8540    -2.9250 ca         1 ISF      -0.116500
     14 C13         -0.5530    -0.6900    -1.8000 ca         1 ISF      -0.076500
     15 C14          0.7710    -0.5130    -5.4220 c3         1 ISF      -0.184400
     16 C15          1.3280    -1.9490    -5.5930 c3         1 ISF      -0.055100
     17 C16          1.8950     0.5460    -5.4390 c          1 ISF       0.726000
     18 O17          2.7390     0.5230    -4.5550 o          1 ISF      -0.720500
     19 O18          1.8790     1.3830    -6.3310 o          1 ISF      -0.720500
     20 H3          -3.5180    -0.7780     1.8110 ha         1 ISF       0.143000
     21 H4          -1.9510    -0.4290     3.8830 ha         1 ISF       0.133000
     22 H9          -3.1220     1.0130    -3.2800 ha         1 ISF       0.102500
     23 H10         -1.6650     0.7250    -5.2500 ha         1 ISF       0.116500
     24 H12          1.2170    -1.3800    -2.8120 ha         1 ISF       0.116500
     25 H13         -0.2410    -1.1270    -0.8540 ha         1 ISF       0.102500
     26 H14          0.1460    -0.3280    -6.3040 hc         1 ISF       0.038700
     27 H151         2.0370    -2.2070    -4.7980 hc         1 ISF       0.019033
     28 H152         0.5120    -2.6820    -5.5790 hc         1 ISF       0.019033
     29 H153         1.8510    -2.0420    -6.5520 hc         1 ISF       0.019033
@<TRIPOS>BOND
     1     1     2 1   
     2     1     5 1   
     3     2     3 2   
     4     2     7 1   
     5     3     4 1   
     6     3    20 1   
     7     4     5 2   
     8     4    21 1   
     9     5     6 1   
    10     7     8 2   
    11     7     9 1   
    12     9    10 ar  
    13     9    14 ar  
    14    10    11 ar  
    15    10    22 1   
    16    11    12 ar  
    17    11    23 1   
    18    12    13 ar  
    19    12    15 1   
    20    13    14 ar  
    21    13    24 1   
    22    14    25 1   
    23    15    16 1   
    24    15    17 1   
    25    15    26 1   
    26    16    27 1   
    27    16    28 1   
    28    16    29 1   
    29    17    18 1   
    30    17    19 1   
@<TRIPOS>SUBSTRUCTURE
     1 ISF         1 TEMP              0 ****  ****    0 ROOT
