@<TRIPOS>MOLECULE
ISF
   29    30     1     0     0
SMALL
abcg2


@<TRIPOS>ATOM
      1 S1          -0.4350     0.7380     0.8600 ss         1 ISF       0.380000
      2 C2          -1.9760    -0.0140     0.6480 cc         1 ISF      -0.295600
      3 C3          -2.5920    -0.2150     1.8550 cd         1 ISF      -0.099000
      4 C4          -1.8230     0.2190     2.9550 cd         1 ISF      -0.113000
      5 C5          -0.6350     0.7640     2.5550 cc         1 ISF       0.008000
      6 I1           0.8350     1.5620     3.7750 i          1 ISF      -0.268000
      7 C6          -2.5630    -0.2850    -0.6730 c          1 ISF       0.626300
      8 O7          -3.7620    -0.4680    -0.7730 o          1 ISF      -0.541100
      9 C8          -1.6790    -0.2830    -1.8630 ca         1 ISF      -0.216600
     10 C9          -2.1360     0.3000    -3.0420 ca         1 ISF      -0.076500
     11 C10         -1.3320     0.3120    -4.1700 ca         1 ISF      -0.116500
     12 C11         -0.0710    -0.2800    -4.1710 ca         1 ISF       0.046700
     13 C12          0.3610    -0.8950    -2.9950 ca         1 ISF      -0.116500
     14 C13         -0.4210    -0.8920    -1.8550 ca         1 ISF      -0.076500
     15 C14          0.7810    -0.2900    -5.4070 c3         1 ISF      -0.184400
     16 C15          1.0140    -1.7160    -5.9120 c3         1 ISF      -0.055100
     17 C16          2.1200     0.4790    -5.2200 c          1 ISF       0.726000
     18 O17          2.2590     1.1490    -4.1810 o          1 ISF      -0.720500
     19 O18          2.9360     0.3780    -6.1550 o          1 ISF      -0.720500
     20 H3          -3.5680    -0.6690     1.9520 ha         1 ISF       0.143000
     21 H4          -2.1360     0.1370     3.9860 ha         1 ISF       0.133000
     22 H9          -3.1110     0.7690    -3.0720 ha         1 ISF       0.102500
     23 H10         -1.6950     0.7920    -5.0710 ha         1 ISF       0.116500
     24 H12          1.3240    -1.3910    -2.9680 ha         1 ISF       0.116500
     25 H13         -0.0620    -1.4010    -0.9690 ha         1 ISF       0.102500
     26 H14          0.2320     0.2450    -6.1920 hc         1 ISF       0.038700
     27 H151         1.5790    -2.3100    -5.1920 hc         1 ISF       0.019033
     28 H152         0.0680    -2.2280    -6.0950 hc         1 ISF       0.019033
     29 H153         1.5740    -1.7010    -6.8450 hc         1 ISF       0.019033
@<TRIPOS>BOND
     1     1     2 1   
     2     1     5 1   
     3     2     3 2   
     4     2     7 1   
     5     3     4 1   
     6     3    20 1   
     7     4     5 2   
     8     4    21 1   
     9     5     6 1   
    10     7     8 2   
    11     7     9 1   
    12     9    10 ar  
    13     9    14 ar  
    14    10    11 ar  
    15    10    22 1   
    16    11    12 ar  
    17    11    23 1   
    18    12    13 ar  
    19    12    15 1   
    20    13    14 ar  
    21    13    24 1   
    22    14    25 1   
    23    15    16 1   
    24    15    17 1   
    25    15    26 1   
    26    16    27 1   
    27    16    28 1   
    28    16    29 1   
    29    17    18 1   
    30    17    19 1   
@<TRIPOS>SUBSTRUCTURE
     1 ISF         1 TEMP              0 ****  ****    0 ROOT
