@<TRIPOS>MOLECULE
ISG
   65    67     1     0     0
SMALL
bcc


@<TRIPOS>ATOM
      1 C11         23.5100    -3.0380    15.5970 c3         1 ISG      -0.017300
      2 C12         22.2710    -2.5650    16.3650 c3         1 ISG      -0.063400
      3 C16         23.1420    -0.1060    19.0730 c5         1 ISG       0.100000
      4 C02         25.9290     1.2980    14.1710 c          1 ISG       0.758100
      5 C04         25.3630    -0.8200    13.1590 c3         1 ISG       0.056700
      6 C05         25.8980    -1.7650    12.0800 c3         1 ISG      -0.090400
      7 C06         26.1310    -1.1270    10.7070 c3         1 ISG      -0.058700
      8 C07         26.6260    -2.1950     9.7370 c3         1 ISG      -0.091600
      9 C08         24.8820    -0.4430    10.1650 c3         1 ISG      -0.091600
     10 C13         22.4920    -1.2210    17.0410 c5         1 ISG      -0.156700
     11 C14         21.2660    -0.7470    17.8100 c          1 ISG       0.704500
     12 C17         23.6030    -1.1850    18.0900 c5         1 ISG      -0.091400
     13 C19         23.2700    -4.4220    15.0380 c          1 ISG       0.558900
     14 C23         26.6540     3.4420    14.8860 c3         1 ISG       0.187400
     15 C24         26.1770     4.5030    13.9280 cx         1 ISG      -0.144700
     16 C25         26.7740     4.6590    12.5560 cx         1 ISG      -0.079400
     17 C26         25.3400     4.2280    12.7270 cx         1 ISG      -0.104400
     18 C27         27.1290     5.9900    12.0100 ca         1 ISG      -0.045300
     19 C28         28.2710     6.1260    11.2210 ca         1 ISG      -0.126000
     20 C29         28.6380     7.3570    10.6940 ca         1 ISG      -0.126000
     21 C30         27.8660     8.4820    10.9460 ca         1 ISG      -0.130000
     22 C31         26.7250     8.3610    11.7290 ca         1 ISG      -0.126000
     23 C32         26.3600     7.1300    12.2540 ca         1 ISG      -0.126000
     24 N03         26.2710     0.2720    13.3740 ns         1 ISG      -0.551900
     25 N10         23.9090    -2.1150    14.5760 ns         1 ISG      -0.554900
     26 N15         21.7020    -0.1650    18.9400 ns         1 ISG      -0.580900
     27 O01         24.8650     1.3900    14.7480 o          1 ISG      -0.597000
     28 O18         20.1040    -0.8640    17.4580 o          1 ISG      -0.634500
     29 O20         23.4350    -4.7320    13.8870 o          1 ISG      -0.507100
     30 O21         26.0590    -1.8220    15.2330 o          1 ISG      -0.598100
     31 O22         26.9140     2.2040    14.2340 os         1 ISG      -0.435900
     32 H1          24.3370    -3.1450    16.3080 h1         1 ISG       0.102700
     33 H2          21.4170    -2.5000    15.6860 hc         1 ISG       0.061200
     34 H3          22.0240    -3.3180    17.1180 hc         1 ISG       0.061200
     35 H4          23.4510    -0.3120    20.0970 h1         1 ISG       0.046700
     36 H5          23.5260     0.8800    18.7970 h1         1 ISG       0.046700
     37 H6          24.3990    -0.4210    12.8310 h1         1 ISG       0.072700
     38 H7          25.1790    -2.5830    11.9730 hc         1 ISG       0.063700
     39 H8          26.8310    -2.2160    12.4320 hc         1 ISG       0.063700
     40 H9          26.9190    -0.3720    10.8000 hc         1 ISG       0.044700
     41 H10         27.5310    -2.6820    10.1040 hc         1 ISG       0.036867
     42 H11         25.8690    -2.9680     9.5910 hc         1 ISG       0.036867
     43 H12         26.8530    -1.7630     8.7610 hc         1 ISG       0.036867
     44 H13         24.5790     0.4130    10.7700 hc         1 ISG       0.036867
     45 H14         25.0540    -0.0740     9.1530 hc         1 ISG       0.036867
     46 H15         24.0400    -1.1390    10.1250 hc         1 ISG       0.036867
     47 H16         22.6880    -0.4600    16.2750 hc         1 ISG       0.095700
     48 H17         23.6620    -2.1490    18.6020 hc         1 ISG       0.062700
     49 H18         24.5840    -0.9670    17.6730 hc         1 ISG       0.062700
     50 H19         22.9260    -5.1540    15.7900 h4         1 ISG      -0.004800
     51 H21         25.9330     3.3110    15.6940 h1         1 ISG       0.069200
     52 H22         27.6030     3.7450    15.3310 h1         1 ISG       0.069200
     53 H23         25.9610     5.4340    14.4460 hc         1 ISG       0.087700
     54 H24         27.4520     3.8680    12.2510 hc         1 ISG       0.088700
     55 H25         24.5640     4.9450    12.4830 hc         1 ISG       0.076700
     56 H26         25.0910     3.2110    12.4530 hc         1 ISG       0.076700
     57 H27         28.8810     5.2540    11.0150 ha         1 ISG       0.127500
     58 H28         29.5290     7.4340    10.0830 ha         1 ISG       0.129500
     59 H29         28.1490     9.4440    10.5360 ha         1 ISG       0.131000
     60 H30         26.1130     9.2300    11.9320 ha         1 ISG       0.129500
     61 H31         25.4630     7.0680    12.8590 ha         1 ISG       0.127500
     62 H32         27.2070     0.2220    13.0030 hn         1 ISG       0.339500
     63 H33         23.2280    -1.8920    13.8660 hn         1 ISG       0.322500
     64 H34         21.0780     0.3240    19.5630 hn         1 ISG       0.326500
     65 C09         25.1540    -1.6230    14.4420 c          1 ISG       0.661100
@<TRIPOS>BOND
     1     1     2 1   
     2     1    13 1   
     3     1    25 1   
     4     1    32 1   
     5     2    10 1   
     6     2    33 1   
     7     2    34 1   
     8     3    12 1   
     9     3    26 1   
    10     3    35 1   
    11     3    36 1   
    12     4    24 1   
    13     4    27 2   
    14     4    31 1   
    15     5     6 1   
    16     5    24 1   
    17     5    37 1   
    18     5    65 1   
    19     6     7 1   
    20     6    38 1   
    21     6    39 1   
    22     7     8 1   
    23     7     9 1   
    24     7    40 1   
    25     8    41 1   
    26     8    42 1   
    27     8    43 1   
    28     9    44 1   
    29     9    45 1   
    30     9    46 1   
    31    10    11 1   
    32    10    12 1   
    33    10    47 1   
    34    11    26 1   
    35    11    28 2   
    36    12    48 1   
    37    12    49 1   
    38    13    29 2   
    39    13    50 1   
    40    14    15 1   
    41    14    31 1   
    42    14    51 1   
    43    14    52 1   
    44    15    16 1   
    45    15    17 1   
    46    15    53 1   
    47    16    17 1   
    48    16    18 1   
    49    16    54 1   
    50    17    55 1   
    51    17    56 1   
    52    18    19 ar  
    53    18    23 ar  
    54    19    20 ar  
    55    19    57 1   
    56    20    21 ar  
    57    20    58 1   
    58    21    22 ar  
    59    21    59 1   
    60    22    23 ar  
    61    22    60 1   
    62    23    61 1   
    63    24    62 1   
    64    25    63 1   
    65    25    65 1   
    66    26    64 1   
    67    30    65 2   
@<TRIPOS>SUBSTRUCTURE
     1 ISG         1 TEMP              0 ****  ****    0 ROOT
