@<TRIPOS>MOLECULE
ISG
   65    67     1     0     0
SMALL
No Charge or Current Charge


@<TRIPOS>ATOM
      1 C11         24.0830    -3.5440    15.6710 c3         1 ISG      -0.017300
      2 C12         22.8100    -3.4590    16.5550 c3         1 ISG      -0.063400
      3 C16         23.1830    -1.2510    19.6650 c5         1 ISG       0.100000
      4 C02         24.7310     2.2650    14.0460 c          1 ISG       0.642100
      5 C04         24.7990    -0.2380    13.7120 c3         1 ISG       0.056700
      6 C05         25.4820    -0.7480    12.4100 c3         1 ISG      -0.090400
      7 C06         25.3820     0.1910    11.1730 c3         1 ISG      -0.058700
      8 C07         26.2580    -0.3300    10.0120 c3         1 ISG      -0.091600
      9 C08         23.9240     0.4030    10.7010 c3         1 ISG      -0.091600
     10 C13         22.7480    -2.2400    17.5160 c5         1 ISG      -0.156700
     11 C14         21.4380    -2.1390    18.3080 c          1 ISG       0.562000
     12 C17         23.8220    -2.2300    18.6420 c5         1 ISG      -0.091400
     13 C19         24.1580    -4.9040    14.9290 c          1 ISG       0.558900
     14 C23         25.1910     4.6210    14.3200 c3         1 ISG       0.210600
     15 C24         25.5530     5.1990    12.9410 cx         1 ISG      -0.144700
     16 C25         26.7310     4.6880    12.1300 cx         1 ISG      -0.079400
     17 C26         25.3160     4.4850    11.6260 cx         1 ISG      -0.104400
     18 C27         27.7060     5.6230    11.4530 ca         1 ISG      -0.045300
     19 C28         29.0770     5.2950    11.4300 ca         1 ISG      -0.108000
     20 C29         30.0070     6.1460    10.8080 ca         1 ISG      -0.108000
     21 C30         29.5750     7.3360    10.2010 ca         1 ISG      -0.112000
     22 C31         28.2120     7.6740    10.2180 ca         1 ISG      -0.108000
     23 C32         27.2820     6.8230    10.8400 ca         1 ISG      -0.108000
     24 N03         25.3690     1.0620    14.1270 ns         1 ISG      -0.484900
     25 N10         24.1580    -2.4150    14.7090 ns         1 ISG      -0.487900
     26 N15         21.7720    -1.5990    19.5200 ns         1 ISG      -0.513900
     27 O01         23.5700     2.4260    13.7040 o          1 ISG      -0.548000
     28 O18         20.3450    -2.6280    18.0730 o          1 ISG      -0.559000
     29 O20         24.1020    -5.0260    13.7080 o          1 ISG      -0.507100
     30 O21         25.6640    -1.1220    15.8320 o          1 ISG      -0.598100
     31 O22         25.6010     3.2410    14.4240 os         1 ISG      -0.459100
     32 H1          24.9640    -3.5220    16.3260 h1         1 ISG       0.102700
     33 H2          21.9330    -3.4490    15.8940 hc         1 ISG       0.061200
     34 H3          22.7290    -4.3810    17.1450 hc         1 ISG       0.061200
     35 H4          23.5620    -1.4140    20.6820 h1         1 ISG       0.046700
     36 H5          23.3660    -0.2040    19.3880 h1         1 ISG       0.046700
     37 H6          23.7240    -0.1170    13.5290 h1         1 ISG       0.072700
     38 H7          25.0610    -1.7240    12.1410 hc         1 ISG       0.063700
     39 H8          26.5430    -0.9260    12.6310 hc         1 ISG       0.063700
     40 H9          25.7860     1.1720    11.4540 hc         1 ISG       0.044700
     41 H10         27.3040    -0.4230    10.3260 hc         1 ISG       0.036867
     42 H11         25.9120    -1.3140     9.6720 hc         1 ISG       0.036867
     43 H12         26.2230     0.3590     9.1600 hc         1 ISG       0.036867
     44 H13         23.3120     0.8620    11.4850 hc         1 ISG       0.036867
     45 H14         23.8940     1.0670     9.8280 hc         1 ISG       0.036867
     46 H15         23.4620    -0.5510    10.4200 hc         1 ISG       0.036867
     47 H16         22.8400    -1.3100    16.9440 hc         1 ISG       0.095700
     48 H17         23.9450    -3.2250    19.0850 hc         1 ISG       0.062700
     49 H18         24.8090    -1.8970    18.3030 hc         1 ISG       0.062700
     50 H19         24.2720    -5.7940    15.5850 h4         1 ISG      -0.004800
     51 H21         24.1180     4.7460    14.5170 h1         1 ISG       0.069200
     52 H22         25.7230     5.2120    15.0760 h1         1 ISG       0.069200
     53 H23         25.3830     6.2730    12.9280 hc         1 ISG       0.087700
     54 H24         27.2240     3.7910    12.4970 hc         1 ISG       0.088700
     55 H25         24.9800     5.0800    10.7810 hc         1 ISG       0.076700
     56 H26         24.9240     3.4730    11.6340 hc         1 ISG       0.076700
     57 H27         29.4270     4.3770    11.8960 ha         1 ISG       0.109500
     58 H28         31.0620     5.8820    10.7970 ha         1 ISG       0.111500
     59 H29         30.2950     7.9950     9.7200 ha         1 ISG       0.113000
     60 H30         27.8760     8.5960     9.7490 ha         1 ISG       0.111500
     61 H31         26.2330     7.1050    10.8410 ha         1 ISG       0.109500
     62 H32         26.3170     1.0910    14.4800 hn         1 ISG       0.339500
     63 H33         23.6050    -2.4750    13.8600 hn         1 ISG       0.322500
     64 H34         21.0600    -1.5230    20.2380 hn         1 ISG       0.326500
     65 C09         24.9330    -1.2810    14.8620 c          1 ISG       0.594100
@<TRIPOS>BOND
     1     1     2 1   
     2     1    13 1   
     3     1    25 1   
     4     1    32 1   
     5     2    10 1   
     6     2    33 1   
     7     2    34 1   
     8     3    12 1   
     9     3    26 1   
    10     3    35 1   
    11     3    36 1   
    12     4    24 1   
    13     4    27 2   
    14     4    31 1   
    15     5     6 1   
    16     5    24 1   
    17     5    37 1   
    18     5    65 1   
    19     6     7 1   
    20     6    38 1   
    21     6    39 1   
    22     7     8 1   
    23     7     9 1   
    24     7    40 1   
    25     8    41 1   
    26     8    42 1   
    27     8    43 1   
    28     9    44 1   
    29     9    45 1   
    30     9    46 1   
    31    10    11 1   
    32    10    12 1   
    33    10    47 1   
    34    11    26 1   
    35    11    28 2   
    36    12    48 1   
    37    12    49 1   
    38    13    29 2   
    39    13    50 1   
    40    14    15 1   
    41    14    31 1   
    42    14    51 1   
    43    14    52 1   
    44    15    16 1   
    45    15    17 1   
    46    15    53 1   
    47    16    17 1   
    48    16    18 1   
    49    16    54 1   
    50    17    55 1   
    51    17    56 1   
    52    18    19 ar  
    53    18    23 ar  
    54    19    20 ar  
    55    19    57 1   
    56    20    21 ar  
    57    20    58 1   
    58    21    22 ar  
    59    21    59 1   
    60    22    23 ar  
    61    22    60 1   
    62    23    61 1   
    63    24    62 1   
    64    25    63 1   
    65    25    65 1   
    66    26    64 1   
    67    30    65 2   
@<TRIPOS>SUBSTRUCTURE
     1 ISG         1 TEMP              0 ****  ****    0 ROOT
