@<TRIPOS>MOLECULE
ISH
   50    52     1     0     0
SMALL
bcc


@<TRIPOS>ATOM
      1 C1          -1.8380     2.9530    -0.3460 ca         1 ISH      -0.164000
      2 C2          -0.6470     3.5360    -0.7750 ca         1 ISH      -0.050000
      3 C3           0.5600     2.9130    -0.4810 ca         1 ISH       0.066400
      4 C4           0.5750     1.7150     0.2580 ca         1 ISH      -0.025200
      5 C5          -0.5930     1.1210     0.6940 ca         1 ISH      -0.191300
      6 C6          -1.7790     1.7640     0.3730 ca         1 ISH       0.134100
      7 N7           1.8510     3.2800    -0.8050 nc         1 ISH      -0.628100
      8 C8           2.6060     2.3430    -0.2970 cd         1 ISH       0.618700
      9 N9           1.9040     1.3770     0.3780 na         1 ISH      -0.183300
     10 C10         -0.9200    -0.0980     1.5040 c5         1 ISH      -0.041100
     11 C11         -2.4410    -0.1970     1.2780 c5         1 ISH       0.139100
     12 O12         -2.8680     1.1060     0.8460 os         1 ISH      -0.288900
     13 CA1          2.4080     0.1230     0.8920 c3         1 ISH       0.057300
     14 CA2         -2.7490    -1.2290     0.2030 c3         1 ISH       0.147800
     15 CB1          2.3630    -0.9880    -0.1500 c3         1 ISH      -0.107400
     16 CD1          3.4630    -4.5660     0.0400 c3         1 ISH       0.147600
     17 CE1          1.4460    -3.7780    -0.9390 c3         1 ISH       0.147600
     18 CG1          2.7670    -2.3240     0.4560 c3         1 ISH       0.167800
     19 CG2         -4.2930    -2.0850    -1.3920 c3         1 ISH       0.150100
     20 CG3         -5.0070    -1.7440     0.8570 c3         1 ISH       0.150100
     21 NP1          3.9530     2.2530    -0.4580 nv         1 ISH      -0.885800
     22 NP2          2.7790    -3.4120    -0.5040 n3         1 ISH      -0.706600
     23 NP3         -4.1350    -1.2790    -0.2010 n3         1 ISH      -0.697600
     24 H1          -2.7900     3.4150    -0.5720 ha         1 ISH       0.150000
     25 H2          -0.6660     4.4580    -1.3420 ha         1 ISH       0.148000
     26 H10         -0.4110    -1.0060     1.1690 hc         1 ISH       0.056200
     27 H11         -2.9720    -0.4210     2.2040 h1         1 ISH       0.074700
     28 HA1          3.4230     0.2670     1.2640 h1         1 ISH       0.051200
     29 HA2         -2.1430    -0.9950    -0.6800 h1         1 ISH       0.036700
     30 HB1          1.3510    -1.0380    -0.5600 hc         1 ISH       0.066700
     31 HD1          2.9720    -4.9780     0.9350 h1         1 ISH       0.031367
     32 HE1          1.5040    -4.5820    -1.6720 h1         1 ISH       0.031367
     33 HG1          3.7770    -2.2280     0.8650 h1         1 ISH       0.026200
     34 HG2         -3.6840    -1.6820    -2.2030 h1         1 ISH       0.030367
     35 HG3         -5.0060    -1.0560     1.7020 h1         1 ISH       0.030367
     36 HNP1         4.4810     1.8300     0.2890 hn         1 ISH       0.411800
     37 H10A        -0.6690     0.0400     2.5590 hc         1 ISH       0.056200
     38 HA1A         1.8110    -0.1460     1.7660 h1         1 ISH       0.051200
     39 HA2A        -2.3900    -2.2070     0.5740 h1         1 ISH       0.036700
     40 HB1A         3.0310    -0.7430    -0.9790 hc         1 ISH       0.066700
     41 HD1A         3.5100    -5.3600    -0.7070 h1         1 ISH       0.031367
     42 HD1B         4.4870    -4.3050     0.3110 h1         1 ISH       0.031367
     43 HE1A         0.8070    -4.1250    -0.1100 h1         1 ISH       0.031367
     44 HE1B         0.9410    -2.9400    -1.4180 h1         1 ISH       0.031367
     45 HG1A         2.1080    -2.5510     1.3150 h1         1 ISH       0.026200
     46 HG2A        -4.0040    -3.1390    -1.2490 h1         1 ISH       0.030367
     47 HG2B        -5.3340    -2.0700    -1.7180 h1         1 ISH       0.030367
     48 HG3A        -6.0320    -1.7980     0.4890 h1         1 ISH       0.030367
     49 HG3B        -4.7340    -2.7420     1.2360 h1         1 ISH       0.030367
     50 HNPA         4.3810     3.1040    -0.7890 hn         1 ISH       0.411800
@<TRIPOS>BOND
     1     1     2 ar  
     2     1     6 ar  
     3     1    24 1   
     4     2     3 ar  
     5     2    25 1   
     6     3     4 ar  
     7     3     7 1   
     8     4     5 ar  
     9     4     9 1   
    10     5     6 ar  
    11     5    10 1   
    12     6    12 1   
    13     7     8 2   
    14     8     9 1   
    15     8    21 1   
    16     9    13 1   
    17    10    11 1   
    18    10    26 1   
    19    10    37 1   
    20    11    12 1   
    21    11    14 1   
    22    11    27 1   
    23    13    15 1   
    24    13    28 1   
    25    13    38 1   
    26    14    23 1   
    27    14    29 1   
    28    14    39 1   
    29    15    18 1   
    30    15    30 1   
    31    15    40 1   
    32    16    22 1   
    33    16    31 1   
    34    16    41 1   
    35    16    42 1   
    36    17    22 1   
    37    17    32 1   
    38    17    43 1   
    39    17    44 1   
    40    18    22 1   
    41    18    33 1   
    42    18    45 1   
    43    19    23 1   
    44    19    34 1   
    45    19    46 1   
    46    19    47 1   
    47    20    23 1   
    48    20    35 1   
    49    20    48 1   
    50    20    49 1   
    51    21    36 1   
    52    21    50 1   
@<TRIPOS>SUBSTRUCTURE
     1 ISH         1 TEMP              0 ****  ****    0 ROOT
