@<TRIPOS>MOLECULE
ISH
   50    52     1     0     0
SMALL
No Charge or Current Charge


@<TRIPOS>ATOM
      1 C1          -1.8050     3.0380    -0.4090 ca         1 ISH      -0.146000
      2 C2          -0.5820     3.6250    -0.8060 ca         1 ISH      -0.032000
      3 C3           0.6240     2.9720    -0.4770 ca         1 ISH       0.066400
      4 C4           0.6170     1.7810     0.2190 ca         1 ISH      -0.025200
      5 C5          -0.5960     1.1890     0.6190 ca         1 ISH      -0.191300
      6 C6          -1.7790     1.8200     0.2960 ca         1 ISH       0.134100
      7 N7           1.9120     3.3970    -0.7730 nc         1 ISH      -0.628100
      8 C8           2.6330     2.4200    -0.2350 cd         1 ISH       0.618700
      9 N9           1.9240     1.3970     0.4030 na         1 ISH      -0.212600
     10 C10         -0.8660    -0.0560     1.4080 c5         1 ISH      -0.041100
     11 C11         -2.4280    -0.1440     1.1970 c5         1 ISH       0.162300
     12 O12         -2.8970     1.1780     0.7460 os         1 ISH      -0.312100
     13 CA1          2.3970     0.1130     0.9480 c3         1 ISH       0.086600
     14 CA2         -2.8300    -1.2200     0.1400 c3         1 ISH       0.147800
     15 CB1          2.3980    -1.0160    -0.1020 c3         1 ISH      -0.107400
     16 CD1          3.5030    -4.6990     0.1190 c3         1 ISH       0.147600
     17 CE1          1.6480    -3.7950    -1.2080 c3         1 ISH       0.147600
     18 CG1          2.7750    -2.3840     0.5040 c3         1 ISH       0.167800
     19 CG2         -4.5380    -2.2460    -1.3120 c3         1 ISH       0.150100
     20 CG3         -5.1040    -1.7330     1.0210 c3         1 ISH       0.150100
     21 NP1          3.9710     2.4400    -0.3250 nv         1 ISH      -0.996200
     22 NP2          2.9050    -3.4860    -0.4820 n3         1 ISH      -0.706600
     23 NP3         -4.2870    -1.3570    -0.1570 n3         1 ISH      -0.697600
     24 H1          -2.7520     3.5180    -0.6410 ha         1 ISH       0.132000
     25 H2          -0.5690     4.5650    -1.3520 ha         1 ISH       0.130000
     26 H10         -0.3480    -0.9430     1.0300 hc         1 ISH       0.056200
     27 H11         -2.9240    -0.3890     2.1440 h1         1 ISH       0.074700
     28 HA1          3.4140     0.2450     1.3370 h1         1 ISH       0.051200
     29 HA2         -2.2940    -0.9770    -0.7880 h1         1 ISH       0.036700
     30 HB1          1.4060    -1.0730    -0.5620 hc         1 ISH       0.066700
     31 HD1          2.8470    -5.1160     0.8950 h1         1 ISH       0.031367
     32 HE1          1.8020    -4.6250    -1.9100 h1         1 ISH       0.031367
     33 HG1          3.7320    -2.2590     1.0290 h1         1 ISH       0.026200
     34 HG2         -3.9900    -1.8970    -2.1980 h1         1 ISH       0.030367
     35 HG3         -5.0270    -0.9800     1.8150 h1         1 ISH       0.030367
     36 HNP1         4.4960     1.8760     0.3310 hn         1 ISH       0.467000
     37 H10A        -0.6080     0.0630     2.4660 hc         1 ISH       0.056200
     38 HA1A         1.7650    -0.1670     1.7990 h1         1 ISH       0.051200
     39 HA2A        -2.4380    -2.1880     0.4820 h1         1 ISH       0.036700
     40 HB1A         3.1080    -0.7650    -0.8990 hc         1 ISH       0.066700
     41 HD1A         3.6670    -5.4710    -0.6440 h1         1 ISH       0.031367
     42 HD1B         4.4740    -4.4680     0.5770 h1         1 ISH       0.031367
     43 HE1A         0.8520    -4.0810    -0.5080 h1         1 ISH       0.031367
     44 HE1B         1.3030    -2.9330    -1.7920 h1         1 ISH       0.031367
     45 HG1A         2.0270    -2.6500     1.2630 h1         1 ISH       0.026200
     46 HG2A        -4.2190    -3.2740    -1.0930 h1         1 ISH       0.030367
     47 HG2B        -5.6070    -2.2630    -1.5640 h1         1 ISH       0.030367
     48 HG3A        -6.1640    -1.8130     0.7450 h1         1 ISH       0.030367
     49 HG3B        -4.7820    -2.7010     1.4280 h1         1 ISH       0.030367
     50 HNPA         4.3910     3.3160    -0.6120 hn         1 ISH       0.467000
@<TRIPOS>BOND
     1     1     2 ar  
     2     1     6 ar  
     3     1    24 1   
     4     2     3 ar  
     5     2    25 1   
     6     3     4 ar  
     7     3     7 1   
     8     4     5 ar  
     9     4     9 1   
    10     5     6 ar  
    11     5    10 1   
    12     6    12 1   
    13     7     8 2   
    14     8     9 1   
    15     8    21 1   
    16     9    13 1   
    17    10    11 1   
    18    10    26 1   
    19    10    37 1   
    20    11    12 1   
    21    11    14 1   
    22    11    27 1   
    23    13    15 1   
    24    13    28 1   
    25    13    38 1   
    26    14    23 1   
    27    14    29 1   
    28    14    39 1   
    29    15    18 1   
    30    15    30 1   
    31    15    40 1   
    32    16    22 1   
    33    16    31 1   
    34    16    41 1   
    35    16    42 1   
    36    17    22 1   
    37    17    32 1   
    38    17    43 1   
    39    17    44 1   
    40    18    22 1   
    41    18    33 1   
    42    18    45 1   
    43    19    23 1   
    44    19    34 1   
    45    19    46 1   
    46    19    47 1   
    47    20    23 1   
    48    20    35 1   
    49    20    48 1   
    50    20    49 1   
    51    21    36 1   
    52    21    50 1   
@<TRIPOS>SUBSTRUCTURE
     1 ISH         1 TEMP              0 ****  ****    0 ROOT
