@<TRIPOS>MOLECULE
ISI
   50    52     1     0     0
SMALL
abcg2


@<TRIPOS>ATOM
      1 C1           1.8990    -2.8480    -0.7930 ca         1 ISI      -0.150000
      2 NP1         -3.6950    -2.5790     0.8490 nv         1 ISI      -0.998200
      3 C2           0.7310    -3.5970    -0.6660 ca         1 ISI      -0.031000
      4 NP2         -3.6580     3.0390    -0.6250 n3         1 ISI      -0.709600
      5 C3          -0.4250    -2.9820    -0.2010 ca         1 ISI       0.065400
      6 NP3          4.6870     1.8650    -0.1410 n3         1 ISI      -0.713600
      7 C4          -0.4080    -1.6180     0.1480 ca         1 ISI      -0.020200
      8 C5           0.7360    -0.8550     0.0220 ca         1 ISI      -0.185300
      9 C6           1.8700    -1.5030    -0.4440 ca         1 ISI       0.136100
     10 N7          -1.6880    -3.5020    -0.0030 nc         1 ISI      -0.627100
     11 C8          -2.3950    -2.5040     0.4540 cd         1 ISI       0.617700
     12 N9          -1.6820    -1.3410     0.5870 na         1 ISI      -0.210600
     13 C10          1.0970     0.5660     0.3310 c5         1 ISI      -0.042100
     14 C11          2.4900     0.6760    -0.3230 c5         1 ISI       0.161300
     15 O12          2.9440    -0.6770    -0.5170 os         1 ISI      -0.336100
     16 CA1         -2.1840    -0.0620     1.0380 c3         1 ISI       0.077600
     17 CA2          3.4550     1.4840     0.5210 c3         1 ISI       0.165800
     18 CB1         -2.7380     0.7900    -0.0980 c3         1 ISI      -0.104400
     19 CD1         -4.9160     2.6050    -1.1960 c3         1 ISI       0.148100
     20 CE1         -3.7680     4.3960    -0.1330 c3         1 ISI       0.148100
     21 CG1         -3.1890     2.1490     0.4200 c3         1 ISI       0.167800
     22 CG2          5.2850     3.0180     0.5030 c3         1 ISI       0.150600
     23 CG3          5.6510     0.7870    -0.2320 c3         1 ISI       0.150600
     24 H1           2.8110    -3.3040    -1.1570 ha         1 ISI       0.130000
     25 HNP1        -4.1650    -3.4180     0.5470 hn         1 ISI       0.467000
     26 HNPA        -4.2660    -1.7600     0.7160 hn         1 ISI       0.467000
     27 H2           0.7260    -4.6460    -0.9340 ha         1 ISI       0.130000
     28 H10          0.4100     1.3030    -0.0890 hc         1 ISI       0.056700
     29 H10A         1.1450     0.7420     1.4110 hc         1 ISI       0.056700
     30 H11          2.4010     1.1410    -1.3110 h1         1 ISI       0.072700
     31 HA1         -2.9480    -0.2390     1.7980 h1         1 ISI       0.060700
     32 HA1A        -1.3710     0.4560     1.5480 h1         1 ISI       0.060700
     33 HA2          3.6310     0.9600     1.4770 h1         1 ISI       0.038200
     34 HA2A         2.9220     2.4050     0.7750 h1         1 ISI       0.038200
     35 HB1         -1.9690     0.9300    -0.8630 hc         1 ISI       0.058200
     36 HB1A        -3.5630     0.2560    -0.5740 hc         1 ISI       0.058200
     37 HD1         -5.7310     2.5570    -0.4560 h1         1 ISI       0.032033
     38 HD1A        -5.2230     3.2960    -1.9820 h1         1 ISI       0.032033
     39 HD1B        -4.8230     1.6200    -1.6520 h1         1 ISI       0.032033
     40 HE1         -4.5020     4.5070     0.6820 h1         1 ISI       0.032033
     41 HE1A        -2.8030     4.7420     0.2390 h1         1 ISI       0.032033
     42 HE1B        -4.0730     5.0620    -0.9420 h1         1 ISI       0.032033
     43 HG1         -2.3340     2.6280     0.9060 h1         1 ISI       0.029200
     44 HG1A        -3.9520     2.0090     1.2070 h1         1 ISI       0.029200
     45 HG2          5.5830     2.8310     1.5470 h1         1 ISI       0.032700
     46 HG2A         6.1780     3.3240    -0.0430 h1         1 ISI       0.032700
     47 HG2B         4.5890     3.8570     0.5010 h1         1 ISI       0.032700
     48 HG3          5.2620    -0.0460    -0.8130 h1         1 ISI       0.032700
     49 HG3A         6.5500     1.1440    -0.7370 h1         1 ISI       0.032700
     50 HG3B         5.9550     0.4000     0.7530 h1         1 ISI       0.032700
@<TRIPOS>BOND
     1     1     3 ar  
     2     1     9 ar  
     3     1    24 1   
     4     2    11 1   
     5     2    25 1   
     6     2    26 1   
     7     3     5 ar  
     8     3    27 1   
     9     4    19 1   
    10     4    20 1   
    11     4    21 1   
    12     5     7 ar  
    13     5    10 1   
    14     6    17 1   
    15     6    22 1   
    16     6    23 1   
    17     7     8 ar  
    18     7    12 1   
    19     8     9 ar  
    20     8    13 1   
    21     9    15 1   
    22    10    11 2   
    23    11    12 1   
    24    12    16 1   
    25    13    14 1   
    26    13    28 1   
    27    13    29 1   
    28    14    15 1   
    29    14    17 1   
    30    14    30 1   
    31    16    18 1   
    32    16    31 1   
    33    16    32 1   
    34    17    33 1   
    35    17    34 1   
    36    18    21 1   
    37    18    35 1   
    38    18    36 1   
    39    19    37 1   
    40    19    38 1   
    41    19    39 1   
    42    20    40 1   
    43    20    41 1   
    44    20    42 1   
    45    21    43 1   
    46    21    44 1   
    47    22    45 1   
    48    22    46 1   
    49    22    47 1   
    50    23    48 1   
    51    23    49 1   
    52    23    50 1   
@<TRIPOS>SUBSTRUCTURE
     1 ISI         1 TEMP              0 ****  ****    0 ROOT
