@<TRIPOS>MOLECULE
ISI
   50    52     1     0     0
SMALL
No Charge or Current Charge


@<TRIPOS>ATOM
      1 C1           1.9200    -2.9420    -0.6430 ca         1 ISI      -0.150000
      2 NP1         -3.7100    -2.7800     0.7750 nv         1 ISI      -0.998200
      3 C2           0.7350    -3.7070    -0.5490 ca         1 ISI      -0.031000
      4 NP2         -3.5030     3.1420    -0.6270 n3         1 ISI      -0.709600
      5 C3          -0.4470    -3.0780    -0.1060 ca         1 ISI       0.065400
      6 NP3          4.5570     2.0720    -0.1500 n3         1 ISI      -0.713600
      7 C4          -0.4530    -1.7400     0.2320 ca         1 ISI      -0.020200
      8 C5           0.7210    -0.9690     0.1360 ca         1 ISI      -0.185300
      9 C6           1.8780    -1.5780    -0.3010 ca         1 ISI       0.136100
     10 N7          -1.6950    -3.6640     0.0570 nc         1 ISI      -0.627100
     11 C8          -2.4060    -2.6330     0.4970 cd         1 ISI       0.617700
     12 N9          -1.7280    -1.4190     0.6350 na         1 ISI      -0.210600
     13 C10          0.9820     0.4680     0.4690 c5         1 ISI      -0.042100
     14 C11          2.4110     0.6070    -0.1880 c5         1 ISI       0.161300
     15 O12          2.9640    -0.7500    -0.3330 os         1 ISI      -0.336100
     16 CA1         -2.2070    -0.1080     1.1060 c3         1 ISI       0.077600
     17 CA2          3.3880     1.5280     0.6040 c3         1 ISI       0.165800
     18 CB1         -2.7260     0.7860    -0.0390 c3         1 ISI      -0.104400
     19 CD1         -4.6710     2.7220    -1.4400 c3         1 ISI       0.148100
     20 CE1         -3.6570     4.5240    -0.1180 c3         1 ISI       0.148100
     21 CG1         -3.1460     2.1880     0.4520 c3         1 ISI       0.167800
     22 CG2          5.3010     3.0820     0.6360 c3         1 ISI       0.150600
     23 CG3          5.4580     1.0310    -0.7020 c3         1 ISI       0.150600
     24 H1           2.8500    -3.3970    -0.9740 ha         1 ISI       0.130000
     25 HNP1        -4.1430    -3.6280     0.4300 hn         1 ISI       0.467000
     26 HNPA        -4.2880    -1.9490     0.7920 hn         1 ISI       0.467000
     27 H2           0.7330    -4.7620    -0.8090 ha         1 ISI       0.130000
     28 H10          0.2660     1.1650     0.0240 hc         1 ISI       0.056700
     29 H10A         1.0050     0.6400     1.5510 hc         1 ISI       0.056700
     30 H11          2.2910     1.0240    -1.1970 h1         1 ISI       0.072700
     31 HA1         -3.0140    -0.2690     1.8330 h1         1 ISI       0.060700
     32 HA1A        -1.3970     0.4010     1.6410 h1         1 ISI       0.060700
     33 HA2          3.7310     0.9800     1.4920 h1         1 ISI       0.038200
     34 HA2A         2.7920     2.3740     0.9720 h1         1 ISI       0.038200
     35 HB1         -1.9460     0.8920    -0.8010 hc         1 ISI       0.058200
     36 HB1A        -3.5770     0.2860    -0.5160 hc         1 ISI       0.058200
     37 HD1         -5.5650     2.6080    -0.8110 h1         1 ISI       0.032033
     38 HD1A        -4.8920     3.4690    -2.2140 h1         1 ISI       0.032033
     39 HD1B        -4.4800     1.7690    -1.9490 h1         1 ISI       0.032033
     40 HE1         -4.5000     4.5920     0.5820 h1         1 ISI       0.032033
     41 HE1A        -2.7480     4.8490     0.4050 h1         1 ISI       0.032033
     42 HE1B        -3.8380     5.2250    -0.9440 h1         1 ISI       0.032033
     43 HG1         -2.3040     2.6000     1.0260 h1         1 ISI       0.029200
     44 HG1A        -3.9860     2.0810     1.1510 h1         1 ISI       0.029200
     45 HG2          5.7550     2.6300     1.5280 h1         1 ISI       0.032700
     46 HG2A         6.1010     3.5320     0.0330 h1         1 ISI       0.032700
     47 HG2B         4.6320     3.8900     0.9630 h1         1 ISI       0.032700
     48 HG3          4.9360     0.4070    -1.4390 h1         1 ISI       0.032700
     49 HG3A         6.3140     1.4910    -1.2140 h1         1 ISI       0.032700
     50 HG3B         5.8440     0.3820     0.0950 h1         1 ISI       0.032700
@<TRIPOS>BOND
     1     1     3 ar  
     2     1     9 ar  
     3     1    24 1   
     4     2    11 1   
     5     2    25 1   
     6     2    26 1   
     7     3     5 ar  
     8     3    27 1   
     9     4    19 1   
    10     4    20 1   
    11     4    21 1   
    12     5     7 ar  
    13     5    10 1   
    14     6    17 1   
    15     6    22 1   
    16     6    23 1   
    17     7     8 ar  
    18     7    12 1   
    19     8     9 ar  
    20     8    13 1   
    21     9    15 1   
    22    10    11 2   
    23    11    12 1   
    24    12    16 1   
    25    13    14 1   
    26    13    28 1   
    27    13    29 1   
    28    14    15 1   
    29    14    17 1   
    30    14    30 1   
    31    16    18 1   
    32    16    31 1   
    33    16    32 1   
    34    17    33 1   
    35    17    34 1   
    36    18    21 1   
    37    18    35 1   
    38    18    36 1   
    39    19    37 1   
    40    19    38 1   
    41    19    39 1   
    42    20    40 1   
    43    20    41 1   
    44    20    42 1   
    45    21    43 1   
    46    21    44 1   
    47    22    45 1   
    48    22    46 1   
    49    22    47 1   
    50    23    48 1   
    51    23    49 1   
    52    23    50 1   
@<TRIPOS>SUBSTRUCTURE
     1 ISI         1 TEMP              0 ****  ****    0 ROOT
