@<TRIPOS>MOLECULE
ISJ
   24    24     1     0     0
SMALL
bcc


@<TRIPOS>ATOM
      1 C1           0.0920     0.9520     0.7100 c6         1 ISJ       0.168300
      2 C2          -0.8800    -0.1900     0.8000 c2         1 ISJ      -0.153200
      3 C3          -1.8440    -0.3540    -0.1120 ce         1 ISJ      -0.168200
      4 C4          -1.9880     0.6250    -1.1920 ce         1 ISJ      -0.023000
      5 C5          -1.3510     1.7960    -1.1610 c2         1 ISJ      -0.288200
      6 C6          -0.4990     2.1770     0.0160 c6         1 ISJ       0.189300
      7 C7          -2.7890    -1.5500    -0.0630 c          1 ISJ       0.929800
      8 O8          -2.6780    -2.3240     0.9070 o          1 ISJ      -0.846800
      9 O9          -3.5940    -1.6490    -1.0090 o          1 ISJ      -0.846800
     10 O10         -1.2640     2.8600     0.9950 oh         1 ISJ      -0.610800
     11 O11          1.2280     0.5740    -0.0610 os         1 ISJ      -0.291900
     12 C12          2.1830    -0.1900     0.5080 ce         1 ISJ       0.024900
     13 C13          3.3480    -0.4660    -0.4510 c          1 ISJ       0.937800
     14 O14          3.2520     0.0270    -1.5860 o          1 ISJ      -0.824300
     15 O15          4.2790    -1.1560     0.0010 o          1 ISJ      -0.824300
     16 C16          2.1700    -0.6600     1.7570 c2         1 ISJ      -0.393000
     17 H1           0.4140     1.2630     1.7120 h1         1 ISJ       0.036700
     18 H2          -0.7650    -0.9150     1.5950 ha         1 ISJ       0.148000
     19 H4          -2.6450     0.3770    -2.0150 ha         1 ISJ       0.131000
     20 H5          -1.4840     2.5230    -1.9550 ha         1 ISJ       0.089000
     21 H6           0.3390     2.8020    -0.3210 h1         1 ISJ       0.035700
     22 HO10        -1.7380     3.5760     0.5610 ho         1 ISJ       0.379000
     23 H16          3.0100    -1.2450     2.0970 ha         1 ISJ       0.101000
     24 H16A         1.3700    -0.4970     2.4660 ha         1 ISJ       0.101000
@<TRIPOS>BOND
     1     1     2 1   
     2     1     6 1   
     3     1    11 1   
     4     1    17 1   
     5     2     3 2   
     6     2    18 1   
     7     3     4 1   
     8     3     7 1   
     9     4     5 2   
    10     4    19 1   
    11     5     6 1   
    12     5    20 1   
    13     6    10 1   
    14     6    21 1   
    15     7     8 1   
    16     7     9 1   
    17    10    22 1   
    18    11    12 1   
    19    12    13 1   
    20    12    16 2   
    21    13    14 1   
    22    13    15 1   
    23    16    23 1   
    24    16    24 1   
@<TRIPOS>SUBSTRUCTURE
     1 ISJ         1 TEMP              0 ****  ****    0 ROOT
