@<TRIPOS>MOLECULE
ISJ
   24    24     1     0     0
SMALL
No Charge or Current Charge


@<TRIPOS>ATOM
      1 C1           0.1440     1.0950     0.7280 c6         1 ISJ       0.191500
      2 C2          -0.8600    -0.0600     0.7990 c2         1 ISJ      -0.203200
      3 C3          -1.8230    -0.2510    -0.1470 ce         1 ISJ      -0.168200
      4 C4          -1.8940     0.7110    -1.2670 ce         1 ISJ      -0.073000
      5 C5          -1.2900     1.9190    -1.1980 c2         1 ISJ      -0.338200
      6 C6          -0.5130     2.3400     0.0340 c6         1 ISJ       0.212500
      7 C7          -2.7830    -1.4240    -0.0890 c          1 ISJ       0.719200
      8 O8          -2.6990    -2.2100     0.8440 o          1 ISJ      -0.741500
      9 O9          -3.6180    -1.5430    -0.9740 o          1 ISJ      -0.741500
     10 O10         -1.4600     2.9710     0.8960 oh         1 ISJ      -0.673000
     11 O11          1.3090     0.6720    -0.0220 os         1 ISJ      -0.315100
     12 C12          2.2450    -0.2240     0.5010 ce         1 ISJ       0.024900
     13 C13          3.3430    -0.6630    -0.4920 c          1 ISJ       0.727200
     14 O14          3.3340    -0.2110    -1.6320 o          1 ISJ      -0.719000
     15 O15          4.2050    -1.4520    -0.1160 o          1 ISJ      -0.719000
     16 C16          2.1990    -0.6820     1.7860 c2         1 ISJ      -0.493000
     17 H1           0.4610     1.3990     1.7350 h1         1 ISJ       0.036700
     18 H2          -0.7520    -0.7390     1.6440 ha         1 ISJ       0.198000
     19 H4          -2.4770     0.4280    -2.1470 ha         1 ISJ       0.181000
     20 H5          -1.3480     2.6340    -2.0180 ha         1 ISJ       0.139000
     21 H6           0.2760     3.0540    -0.2460 h1         1 ISJ       0.035700
     22 HO10        -2.2240     2.3560     0.9160 ho         1 ISJ       0.418000
     23 H16          2.9470    -1.3830     2.1570 ha         1 ISJ       0.151000
     24 H16A         1.4420    -0.3830     2.5070 ha         1 ISJ       0.151000
@<TRIPOS>BOND
     1     1     2 1   
     2     1     6 1   
     3     1    11 1   
     4     1    17 1   
     5     2     3 2   
     6     2    18 1   
     7     3     4 1   
     8     3     7 1   
     9     4     5 2   
    10     4    19 1   
    11     5     6 1   
    12     5    20 1   
    13     6    10 1   
    14     6    21 1   
    15     7     8 1   
    16     7     9 1   
    17    10    22 1   
    18    11    12 1   
    19    12    13 1   
    20    12    16 2   
    21    13    14 1   
    22    13    15 1   
    23    16    23 1   
    24    16    24 1   
@<TRIPOS>SUBSTRUCTURE
     1 ISJ         1 TEMP              0 ****  ****    0 ROOT
