@<TRIPOS>MOLECULE
ISK
   21    20     1     0     0
SMALL
bcc


@<TRIPOS>ATOM
      1 C4         -13.7960    -5.5320     1.5240 c          1 ISK       0.652100
      2 C5         -13.7820    -7.0470     3.4630 c3         1 ISK       0.183100
      3 C6         -14.8190    -8.0390     3.7350 c1         1 ISK      -0.100100
      4 C7         -15.6940    -8.8300     3.9610 c1         1 ISK      -0.042200
      5 N1         -14.0210    -3.9450    -0.3480 ns         1 ISK      -0.559900
      6 N2         -14.3080    -5.9400     2.7000 ns         1 ISK      -0.579900
      7 C3         -14.5220    -4.3220     0.9360 c3         1 ISK       0.021000
      8 C1         -13.6310    -4.1860    -2.7220 c3         1 ISK      -0.177100
      9 C2         -14.3290    -4.6340    -1.4640 c          1 ISK       0.675100
     10 O1         -15.1350    -5.5520    -1.4610 o          1 ISK      -0.595100
     11 O2         -12.8440    -6.0560     0.9770 o          1 ISK      -0.584100
     12 BR1        -16.9790   -10.0120     4.2970 br         1 ISK      -0.012800
     13 H1         -12.9770    -7.5080     2.8900 h1         1 ISK       0.079200
     14 H2         -13.3460    -6.7040     4.4050 h1         1 ISK       0.079200
     15 H7         -13.2920    -3.2530    -0.3820 hn         1 ISK       0.318500
     16 H8         -15.1020    -5.4510     3.0840 hn         1 ISK       0.317500
     17 H9         -14.4060    -3.4780     1.6170 h1         1 ISK       0.070700
     18 H10        -15.5920    -4.5370     0.8810 h1         1 ISK       0.070700
     19 H11        -14.3750    -3.9000    -3.4650 hc         1 ISK       0.061367
     20 H12        -12.9500    -3.3500    -2.5760 hc         1 ISK       0.061367
     21 H13        -13.0660    -5.0220    -3.1350 hc         1 ISK       0.061367
@<TRIPOS>BOND
     1     1     6 1   
     2     1     7 1   
     3     1    11 2   
     4     2     3 1   
     5     2     6 1   
     6     2    13 1   
     7     2    14 1   
     8     3     4 3   
     9     4    12 1   
    10     5     7 1   
    11     5     9 1   
    12     5    15 1   
    13     6    16 1   
    14     7    17 1   
    15     7    18 1   
    16     8     9 1   
    17     8    19 1   
    18     8    20 1   
    19     8    21 1   
    20     9    10 2   
@<TRIPOS>SUBSTRUCTURE
     1 ISK         1 TEMP              0 ****  ****    0 ROOT
