@<TRIPOS>MOLECULE
ISK
   21    20     1     0     0
SMALL
No Charge or Current Charge


@<TRIPOS>ATOM
      1 C4         -13.7750    -5.9010     1.4270 c          1 ISK       0.585100
      2 C5         -13.7500    -7.2410     3.5450 c3         1 ISK       0.183100
      3 C6         -14.7390    -7.8450     4.4420 c1         1 ISK      -0.100100
      4 C7         -15.5760    -8.3330     5.1660 c1         1 ISK      -0.042200
      5 N1         -13.9380    -4.5650    -0.6950 ns         1 ISK      -0.492900
      6 N2         -14.4270    -6.5660     2.4400 ns         1 ISK      -0.512900
      7 C3         -14.7000    -5.2630     0.3650 c3         1 ISK       0.021000
      8 C1         -13.5140    -3.2670    -2.7230 c3         1 ISK      -0.177100
      9 C2         -14.5050    -3.9110    -1.7620 c          1 ISK       0.608100
     10 O1         -15.7160    -3.8520    -1.9250 o          1 ISK      -0.595100
     11 O2         -12.5530    -5.8300     1.3850 o          1 ISK      -0.584100
     12 Br1        -16.8240    -9.0530     6.2320 br         1 ISK      -0.012800
     13 H1         -13.0880    -8.0230     3.1490 h1         1 ISK       0.079200
     14 H2         -13.1430    -6.5150     4.1030 h1         1 ISK       0.079200
     15 H7         -12.9240    -4.5630    -0.6390 hn         1 ISK       0.318500
     16 H8         -15.4400    -6.5850     2.4100 hn         1 ISK       0.317500
     17 H9         -15.3650    -4.5510     0.8700 h1         1 ISK       0.070700
     18 H10        -15.3110    -6.0580    -0.0830 h1         1 ISK       0.070700
     19 H11        -14.0060    -2.7570    -3.5580 hc         1 ISK       0.061367
     20 H12        -12.8630    -2.5880    -2.1610 hc         1 ISK       0.061367
     21 H13        -12.8100    -4.0300    -3.0720 hc         1 ISK       0.061367
@<TRIPOS>BOND
     1     1     6 1   
     2     1     7 1   
     3     1    11 2   
     4     2     3 1   
     5     2     6 1   
     6     2    13 1   
     7     2    14 1   
     8     3     4 3   
     9     4    12 1   
    10     5     7 1   
    11     5     9 1   
    12     5    15 1   
    13     6    16 1   
    14     7    17 1   
    15     7    18 1   
    16     8     9 1   
    17     8    19 1   
    18     8    20 1   
    19     8    21 1   
    20     9    10 2   
@<TRIPOS>SUBSTRUCTURE
     1 ISK         1 TEMP              0 ****  ****    0 ROOT
