@<TRIPOS>MOLECULE
ISL
   45    45     1     0     0
SMALL
No Charge or Current Charge


@<TRIPOS>ATOM
      1 O2           6.7960     6.9740    -2.5350 o          1 ISL      -0.477100
      2 C2           7.4020     5.9050    -2.5520 c          1 ISL       0.561100
      3 C1           7.2530     4.8730    -3.7140 c3         1 ISL       0.072600
      4 O1           6.2500     5.2290    -4.6990 oh         1 ISL      -0.624000
      5 C3           8.6280     5.6790    -1.6130 c3         1 ISL       0.029300
      6 O3           9.5510     6.8160    -1.6320 oh         1 ISL      -0.714000
      7 C4           8.2030     5.3990    -0.1400 c3         1 ISL       0.154300
      8 O4           9.4160     5.4520     0.6260 oh         1 ISL      -0.662000
      9 C5           7.4820     4.0260     0.0830 c3         1 ISL       0.179300
     10 O5           6.2630     3.9700    -0.6760 oh         1 ISL      -0.705000
     11 C6           7.1140     3.7690     1.5700 c3         1 ISL       0.139600
     12 O8           5.9200     4.5260     1.8660 os         1 ISL      -0.448000
     13 C8           5.4260     4.4410     3.2180 c6         1 ISL       0.349300
     14 O11          6.3970     5.0280     4.1160 os         1 ISL      -0.482000
     15 C11          6.6210     6.4460     3.9260 c6         1 ISL       0.131300
     16 C10          5.2950     7.2210     4.1700 c6         1 ISL       0.109300
     17 O10          5.4950     8.6370     3.9990 oh         1 ISL      -0.726000
     18 C9           4.1950     6.6920     3.2050 c6         1 ISL       0.183300
     19 O9           2.9720     7.4090     3.4670 oh         1 ISL      -0.647000
     20 C7           4.0260     5.1440     3.3680 c6         1 ISL       0.164300
     21 O7           3.0530     4.6220     2.4220 oh         1 ISL      -0.676000
     22 C12          7.7590     6.8860     4.8990 c3         1 ISL       0.157600
     23 O6           8.0310     8.3020     4.8210 oh         1 ISL      -0.738000
     24 H1A          7.0150     3.9000    -3.2650 h1         1 ISL       0.032700
     25 H2A          8.2360     4.7750    -4.1940 h1         1 ISL       0.032700
     26 H3A          6.2290     4.5120    -5.3720 ho         1 ISL       0.444000
     27 H4A          9.1450     4.7820    -1.9820 h1         1 ISL       0.083700
     28 H5A          9.0190     7.6410    -1.7650 ho         1 ISL       0.522000
     29 H6           7.5240     6.1990     0.1850 h1         1 ISL       0.075700
     30 H7           9.9990     6.0360     0.0810 ho         1 ISL       0.465000
     31 H8           8.1620     3.2280    -0.2450 h1         1 ISL       0.036700
     32 H9           5.5620     4.1870    -0.0120 ho         1 ISL       0.508000
     33 H10          6.9290     2.6970     1.7130 h1         1 ISL       0.037700
     34 H11          7.9450     4.0570     2.2260 h1         1 ISL       0.037700
     35 H1           5.3040     3.3790     3.4790 h2         1 ISL       0.060700
     36 H5           6.9700     6.6200     2.8970 h1         1 ISL       0.078700
     37 H4           4.9760     7.0190     5.2040 h1         1 ISL       0.042700
     38 HO4          6.4430     8.7790     4.2940 ho         1 ISL       0.533000
     39 H3           4.5270     6.8890     2.1740 h1         1 ISL       0.070700
     40 HO3          3.2700     8.3260     3.6660 ho         1 ISL       0.460000
     41 H2           3.6750     4.9550     4.3930 h1         1 ISL       0.050700
     42 HO2          2.8110     3.7160     2.7220 ho         1 ISL       0.500000
     43 H61          7.4670     6.6120     5.9220 h1         1 ISL       0.039200
     44 H62          8.6610     6.3110     4.6480 h1         1 ISL       0.039200
     45 HO6          8.8560     8.4650     5.3410 ho         1 ISL       0.516000
@<TRIPOS>BOND
     1     1     2 2   
     2     2     3 1   
     3     2     5 1   
     4     3     4 1   
     5     3    24 1   
     6     3    25 1   
     7     4    26 1   
     8     5     6 1   
     9     5     7 1   
    10     5    27 1   
    11     6    28 1   
    12     7     8 1   
    13     7     9 1   
    14     7    29 1   
    15     8    30 1   
    16     9    10 1   
    17     9    11 1   
    18     9    31 1   
    19    10    32 1   
    20    11    12 1   
    21    11    33 1   
    22    11    34 1   
    23    12    13 1   
    24    13    14 1   
    25    13    20 1   
    26    13    35 1   
    27    14    15 1   
    28    15    16 1   
    29    15    22 1   
    30    15    36 1   
    31    16    17 1   
    32    16    18 1   
    33    16    37 1   
    34    17    38 1   
    35    18    19 1   
    36    18    20 1   
    37    18    39 1   
    38    19    40 1   
    39    20    21 1   
    40    20    41 1   
    41    21    42 1   
    42    22    23 1   
    43    22    43 1   
    44    22    44 1   
    45    23    45 1   
@<TRIPOS>SUBSTRUCTURE
     1 ISL         1 TEMP              0 ****  ****    0 ROOT
