@<TRIPOS>MOLECULE
ISL
   45    45     1     0     0
SMALL
abcg2


@<TRIPOS>ATOM
      1 O2           6.4130     6.4530    -2.8720 o          1 ISL      -0.477100
      2 C2           7.3000     5.6450    -2.7390 c          1 ISL       0.561100
      3 C1           7.5090     4.4860    -3.6700 c3         1 ISL       0.072600
      4 O1           6.3780     4.2860    -4.4600 oh         1 ISL      -0.624000
      5 C3           8.3630     5.8320    -1.6620 c3         1 ISL       0.029300
      6 O3           8.9190     7.1230    -1.7660 oh         1 ISL      -0.714000
      7 C4           7.8140     5.6120    -0.2400 c3         1 ISL       0.154300
      8 O4           8.8400     5.8290     0.6940 oh         1 ISL      -0.662000
      9 C5           7.2990     4.1900    -0.0320 c3         1 ISL       0.179300
     10 O5           6.2090     4.0300    -0.9130 oh         1 ISL      -0.705000
     11 C6           6.9070     3.9020     1.4070 c3         1 ISL       0.139600
     12 O8           5.9080     4.8130     1.8080 os         1 ISL      -0.448000
     13 C8           5.4580     4.6490     3.1090 c6         1 ISL       0.349300
     14 O11          6.4180     5.0160     4.0590 os         1 ISL      -0.482000
     15 C11          6.8040     6.3800     4.0360 c6         1 ISL       0.131300
     16 C10          5.5830     7.2840     4.2360 c6         1 ISL       0.109300
     17 O10          5.8950     8.6440     4.0640 oh         1 ISL      -0.726000
     18 C9           4.4870     6.9500     3.2290 c6         1 ISL       0.183300
     19 O9           3.3080     7.6680     3.5030 oh         1 ISL      -0.647000
     20 C7           4.1730     5.4650     3.2970 c6         1 ISL       0.164300
     21 O7           3.2060     5.1560     2.3300 oh         1 ISL      -0.676000
     22 C12          7.8220     6.5090     5.1620 c3         1 ISL       0.157600
     23 O6           8.2530     7.8540     5.2340 oh         1 ISL      -0.738000
     24 H1A          7.7920     3.6040    -3.0790 h1         1 ISL       0.032700
     25 H2A          8.4050     4.7410    -4.2600 h1         1 ISL       0.032700
     26 H3A          6.5900     3.6230    -5.1230 ho         1 ISL       0.444000
     27 H4A          9.1860     5.1280    -1.8230 h1         1 ISL       0.083700
     28 H5A          8.1990     7.7670    -1.7510 ho         1 ISL       0.522000
     29 H6           6.9830     6.3180    -0.0860 h1         1 ISL       0.075700
     30 H7           9.1790     6.7200     0.5610 ho         1 ISL       0.465000
     31 H8           8.1120     3.4900    -0.2760 h1         1 ISL       0.036700
     32 H9           6.0450     3.0900    -1.0380 ho         1 ISL       0.508000
     33 H10          6.5340     2.8700     1.4740 h1         1 ISL       0.037700
     34 H11          7.7950     3.9620     2.0430 h1         1 ISL       0.037700
     35 H1           5.2550     3.5870     3.3150 h2         1 ISL       0.060700
     36 H5           7.2860     6.6340     3.0820 h1         1 ISL       0.078700
     37 H4           5.1860     7.0900     5.2470 h1         1 ISL       0.042700
     38 HO4          6.6580     8.8340     4.6270 ho         1 ISL       0.533000
     39 H3           4.8650     7.1890     2.2230 h1         1 ISL       0.070700
     40 HO3          3.5110     8.6060     3.4300 ho         1 ISL       0.460000
     41 H2           3.8080     5.2390     4.3110 h1         1 ISL       0.050700
     42 HO2          2.9050     4.2530     2.4750 ho         1 ISL       0.500000
     43 H61          7.3510     6.1890     6.0990 h1         1 ISL       0.039200
     44 H62          8.6630     5.8340     4.9650 h1         1 ISL       0.039200
     45 HO6          8.6970     7.9910     6.0760 ho         1 ISL       0.516000
@<TRIPOS>BOND
     1     1     2 2   
     2     2     3 1   
     3     2     5 1   
     4     3     4 1   
     5     3    24 1   
     6     3    25 1   
     7     4    26 1   
     8     5     6 1   
     9     5     7 1   
    10     5    27 1   
    11     6    28 1   
    12     7     8 1   
    13     7     9 1   
    14     7    29 1   
    15     8    30 1   
    16     9    10 1   
    17     9    11 1   
    18     9    31 1   
    19    10    32 1   
    20    11    12 1   
    21    11    33 1   
    22    11    34 1   
    23    12    13 1   
    24    13    14 1   
    25    13    20 1   
    26    13    35 1   
    27    14    15 1   
    28    15    16 1   
    29    15    22 1   
    30    15    36 1   
    31    16    17 1   
    32    16    18 1   
    33    16    37 1   
    34    17    38 1   
    35    18    19 1   
    36    18    20 1   
    37    18    39 1   
    38    19    40 1   
    39    20    21 1   
    40    20    41 1   
    41    21    42 1   
    42    22    23 1   
    43    22    43 1   
    44    22    44 1   
    45    23    45 1   
@<TRIPOS>SUBSTRUCTURE
     1 ISL         1 TEMP              0 ****  ****    0 ROOT
