@<TRIPOS>MOLECULE
ISM
   25    25     1     0     0
SMALL
abcg2


@<TRIPOS>ATOM
      1 O1          -1.2300    -1.6790    -0.0030 o          1 ISM      -0.720000
      2 C1           0.0110    -1.7770     0.0780 c          1 ISM       0.712600
      3 C2           0.8230    -0.4930    -0.0700 ca         1 ISM      -0.084600
      4 C3           2.1690    -0.5410     0.2750 ca         1 ISM      -0.141000
      5 C4           3.0050     0.5750     0.2020 ca         1 ISM       0.246000
      6 N1           4.3220     0.5070     0.6220 nv         1 ISM      -1.075000
      7 C5           2.4510     1.7710    -0.2580 ca         1 ISM      -0.195000
      8 C6           1.1140     1.8210    -0.6130 ca         1 ISM      -0.098000
      9 C7           0.2730     0.7150    -0.5250 ca         1 ISM      -0.085300
     10 C8          -1.1590     0.8710    -0.9560 c3         1 ISM      -0.047100
     11 C9          -2.1340     0.7480     0.1830 c          1 ISM       0.642100
     12 O2          -1.8950     1.0300     1.3310 o          1 ISM      -0.509000
     13 O3          -3.3480     0.4110    -0.2430 os         1 ISM      -0.442100
     14 C10         -4.3800     0.3230     0.7330 c3         1 ISM       0.161900
     15 OX0          0.6500    -2.8270     0.2780 o          1 ISM      -0.720000
     16 H3           2.5790    -1.4840     0.6150 ha         1 ISM       0.131000
     17 H11N         4.7290    -0.4140     0.5980 hn         1 ISM       0.425000
     18 H12N         4.9400     1.1890     0.2130 hn         1 ISM       0.425000
     19 H5           3.0660     2.6610    -0.3380 ha         1 ISM       0.084000
     20 H6           0.7110     2.7610    -0.9730 ha         1 ISM       0.081000
     21 H81C        -1.2920     1.8770    -1.3710 hc         1 ISM       0.056200
     22 H82C        -1.4310     0.1760    -1.7500 hc         1 ISM       0.056200
     23 H101        -5.2790     0.0340     0.1950 h1         1 ISM       0.031700
     24 H102        -4.1570    -0.4320     1.4870 h1         1 ISM       0.031700
     25 H103        -4.5530     1.2800     1.2270 h1         1 ISM       0.031700
@<TRIPOS>BOND
     1     1     2 1   
     2     2     3 1   
     3     2    15 1   
     4     3     4 ar  
     5     3     9 ar  
     6     4     5 ar  
     7     4    16 1   
     8     5     6 1   
     9     5     7 ar  
    10     6    17 1   
    11     6    18 1   
    12     7     8 ar  
    13     7    19 1   
    14     8     9 ar  
    15     8    20 1   
    16     9    10 1   
    17    10    11 1   
    18    10    21 1   
    19    10    22 1   
    20    11    12 2   
    21    11    13 1   
    22    13    14 1   
    23    14    23 1   
    24    14    24 1   
    25    14    25 1   
@<TRIPOS>SUBSTRUCTURE
     1 ISM         1 TEMP              0 ****  ****    0 ROOT
