@<TRIPOS>MOLECULE
ISM
   25    25     1     0     0
SMALL
No Charge or Current Charge


@<TRIPOS>ATOM
      1 O1          -0.9040    -1.9890     0.5110 o          1 ISM      -0.720000
      2 C1           0.0790    -1.8960    -0.2100 c          1 ISM       0.712600
      3 C2           0.8600    -0.6010    -0.1920 ca         1 ISM      -0.084600
      4 C3           2.2120    -0.6330     0.2180 ca         1 ISM      -0.141000
      5 C4           2.9790     0.5390     0.2640 ca         1 ISM       0.246000
      6 N1           4.2860     0.4980     0.6670 nv         1 ISM      -1.075000
      7 C5           2.4030     1.7600    -0.1030 ca         1 ISM      -0.195000
      8 C6           1.0640     1.8110    -0.5210 ca         1 ISM      -0.098000
      9 C7           0.2810     0.6390    -0.5730 ca         1 ISM      -0.085300
     10 C8          -1.1660     0.7490    -1.0700 c3         1 ISM      -0.047100
     11 C9          -2.1650     0.9900     0.0730 c          1 ISM       0.642100
     12 O2          -2.0860     1.9370     0.8480 o          1 ISM      -0.509000
     13 O3          -3.2840     0.2060    -0.0600 os         1 ISM      -0.442100
     14 C10         -4.3500     0.3830     0.8900 c3         1 ISM       0.161900
     15 OX0          0.5070    -2.8170    -0.8910 o          1 ISM      -0.720000
     16 H3           2.6600    -1.5800     0.5070 ha         1 ISM       0.131000
     17 H11N         4.7470    -0.3960     0.8270 hn         1 ISM       0.425000
     18 H12N         4.8680     1.3300     0.5970 hn         1 ISM       0.425000
     19 H5           2.9900     2.6750    -0.0700 ha         1 ISM       0.084000
     20 H6           0.6330     2.7670    -0.8090 ha         1 ISM       0.081000
     21 H81C        -1.2520     1.5960    -1.7600 hc         1 ISM       0.056200
     22 H82C        -1.4590    -0.1440    -1.6330 hc         1 ISM       0.056200
     23 H101        -5.1690    -0.3150     0.6760 h1         1 ISM       0.031700
     24 H102        -3.9980     0.1920     1.9120 h1         1 ISM       0.031700
     25 H103        -4.7510     1.4030     0.8420 h1         1 ISM       0.031700
@<TRIPOS>BOND
     1     1     2 1   
     2     2     3 1   
     3     2    15 1   
     4     3     4 ar  
     5     3     9 ar  
     6     4     5 ar  
     7     4    16 1   
     8     5     6 1   
     9     5     7 ar  
    10     6    17 1   
    11     6    18 1   
    12     7     8 ar  
    13     7    19 1   
    14     8     9 ar  
    15     8    20 1   
    16     9    10 1   
    17    10    11 1   
    18    10    21 1   
    19    10    22 1   
    20    11    12 2   
    21    11    13 1   
    22    13    14 1   
    23    14    23 1   
    24    14    24 1   
    25    14    25 1   
@<TRIPOS>SUBSTRUCTURE
     1 ISM         1 TEMP              0 ****  ****    0 ROOT
