@<TRIPOS>MOLECULE
ISN
   16    17     1     0     0
SMALL
No Charge or Current Charge


@<TRIPOS>ATOM
      1 C1          -0.5390    -0.0000     0.3310 ca         1 ISN      -0.246600
      2 C2          -1.3860     0.0070     1.4480 ca         1 ISN       0.003000
      3 C3          -0.7820     0.0290     2.7250 ca         1 ISN      -0.158000
      4 C4           0.6280     0.0430     2.8620 ca         1 ISN      -0.043000
      5 C5           1.4590     0.0350     1.7200 ca         1 ISN      -0.162000
      6 N1           1.4280     0.0020    -0.8060 ns         1 ISN      -0.410100
      7 C6           0.8430     0.0130     0.4660 ca         1 ISN       0.105600
      8 C7          -0.8660    -0.0220    -1.1280 c          1 ISN       0.510700
      9 C10          0.5390    -0.0200    -1.8570 c          1 ISN       0.462000
     10 O8          -1.9830    -0.0380    -1.6410 o          1 ISN      -0.443100
     11 O11          0.7960    -0.0330    -3.0560 o          1 ISN      -0.467000
     12 H2          -2.4690    -0.0030     1.3370 ha         1 ISN       0.133000
     13 H3          -1.4090     0.0360     3.6140 ha         1 ISN       0.124000
     14 H4           1.0740     0.0600     3.8540 ha         1 ISN       0.118000
     15 H5           2.5420     0.0450     1.8140 ha         1 ISN       0.127000
     16 H1           2.4330     0.0080    -0.9470 hn         1 ISN       0.344500
@<TRIPOS>BOND
     1     1     2 ar  
     2     1     7 ar  
     3     1     8 1   
     4     2     3 ar  
     5     2    12 1   
     6     3     4 ar  
     7     3    13 1   
     8     4     5 ar  
     9     4    14 1   
    10     5     7 ar  
    11     5    15 1   
    12     6     7 1   
    13     6     9 1   
    14     6    16 1   
    15     8     9 1   
    16     8    10 2   
    17     9    11 2   
@<TRIPOS>SUBSTRUCTURE
     1 ISN         1 TEMP              0 ****  ****    0 ROOT
