@<TRIPOS>MOLECULE
ISN
   16    17     1     0     0
SMALL
abcg2


@<TRIPOS>ATOM
      1 C1          -0.5540    -0.0020     0.3350 ca         1 ISN      -0.246600
      2 C2          -1.3740     0.0070     1.4510 ca         1 ISN       0.003000
      3 C3          -0.7780     0.0290     2.7040 ca         1 ISN      -0.158000
      4 C4           0.6110     0.0430     2.8160 ca         1 ISN      -0.043000
      5 C5           1.4440     0.0360     1.7000 ca         1 ISN      -0.162000
      6 N1           1.4450     0.0050    -0.7940 ns         1 ISN      -0.410100
      7 C6           0.8390     0.0160     0.4600 ca         1 ISN       0.105600
      8 C7          -0.8540    -0.0220    -1.0890 c          1 ISN       0.510700
      9 C10          0.5300    -0.0160    -1.7940 c          1 ISN       0.462000
     10 O8          -1.9020    -0.0400    -1.6790 o          1 ISN      -0.443100
     11 O11          0.7160    -0.0280    -2.9840 o          1 ISN      -0.467000
     12 H2          -2.4500    -0.0040     1.3450 ha         1 ISN       0.133000
     13 H3          -1.3900     0.0360     3.5960 ha         1 ISN       0.124000
     14 H4           1.0610     0.0580     3.8000 ha         1 ISN       0.118000
     15 H5           2.5200     0.0480     1.8080 ha         1 ISN       0.127000
     16 H1           2.4440    -0.0040    -0.9400 hn         1 ISN       0.344500
@<TRIPOS>BOND
     1     1     2 ar  
     2     1     7 ar  
     3     1     8 1   
     4     2     3 ar  
     5     2    12 1   
     6     3     4 ar  
     7     3    13 1   
     8     4     5 ar  
     9     4    14 1   
    10     5     7 ar  
    11     5    15 1   
    12     6     7 1   
    13     6     9 1   
    14     6    16 1   
    15     8     9 1   
    16     8    10 2   
    17     9    11 2   
@<TRIPOS>SUBSTRUCTURE
     1 ISN         1 TEMP              0 ****  ****    0 ROOT
