@<TRIPOS>MOLECULE
ISO
   23    23     1     0     0
SMALL
abcg2


@<TRIPOS>ATOM
      1 C1          -2.1790    -0.1050     0.0380 ca         1 ISO       0.280000
      2 N1          -3.5530    -0.2520     0.1000 nv         1 ISO      -1.066000
      3 C2          -1.5840     1.1600     0.0470 ca         1 ISO      -0.175000
      4 C3          -0.2030     1.2930     0.0420 ca         1 ISO      -0.068000
      5 C4           0.6440     0.1890     0.0290 ca         1 ISO      -0.117300
      6 C5           0.0420    -1.0690     0.0190 ca         1 ISO      -0.068000
      7 C6          -1.3340    -1.2210     0.0230 ca         1 ISO      -0.175000
      8 C7           2.1470     0.3480     0.0210 c3         1 ISO      -0.008400
      9 C8           2.7860    -0.2600     1.2690 c3         1 ISO      -0.084100
     10 C9           2.7680    -0.2310    -1.2490 c3         1 ISO      -0.084100
     11 HN11        -4.0840     0.5310    -0.2480 hn         1 ISO       0.442000
     12 HN12        -3.9080    -1.1210    -0.2660 hn         1 ISO       0.442000
     13 H2          -2.2090     2.0460     0.0560 ha         1 ISO       0.110000
     14 H3           0.2230     2.2910     0.0460 ha         1 ISO       0.107500
     15 H5           0.6580    -1.9610     0.0050 ha         1 ISO       0.107500
     16 H6          -1.7630    -2.2170     0.0130 ha         1 ISO       0.110000
     17 H1           2.3580     1.4230     0.0330 hc         1 ISO       0.045700
     18 H2'1         2.6260    -1.3390     1.3150 hc         1 ISO       0.033200
     19 H2'2         3.8650    -0.0900     1.2760 hc         1 ISO       0.033200
     20 H2'3         2.3720     0.1750     2.1790 hc         1 ISO       0.033200
     21 H3'1         3.8460    -0.0570    -1.2700 hc         1 ISO       0.033200
     22 H3'2         2.6110    -1.3100    -1.3130 hc         1 ISO       0.033200
     23 H3'3         2.3370     0.2200    -2.1430 hc         1 ISO       0.033200
@<TRIPOS>BOND
     1     1     2 1   
     2     1     3 ar  
     3     1     7 ar  
     4     2    11 1   
     5     2    12 1   
     6     3     4 ar  
     7     3    13 1   
     8     4     5 ar  
     9     4    14 1   
    10     5     6 ar  
    11     5     8 1   
    12     6     7 ar  
    13     6    15 1   
    14     7    16 1   
    15     8     9 1   
    16     8    10 1   
    17     8    17 1   
    18     9    18 1   
    19     9    19 1   
    20     9    20 1   
    21    10    21 1   
    22    10    22 1   
    23    10    23 1   
@<TRIPOS>SUBSTRUCTURE
     1 ISO         1 TEMP              0 ****  ****    0 ROOT
