@<TRIPOS>MOLECULE
ISP
   15    14     1     0     0
SMALL
No Charge or Current Charge


@<TRIPOS>ATOM
      1 C1          27.4030     4.0570    39.2500 c3         1 ISP      -0.094600
      2 C2          26.8800     2.6190    39.0180 c3         1 ISP       0.241300
      3 C3          26.7960     1.7920    40.3200 c3         1 ISP      -0.094600
      4 P           27.4840     1.8940    36.5380 p5         1 ISP       1.275900
      5 O1P         27.7670     1.9300    38.1240 os         1 ISP      -0.593400
      6 O2P         28.5530     1.0880    35.8870 o          1 ISP      -0.933500
      7 O3P         26.1670     1.2510    36.2800 o          1 ISP      -0.933500
      8 O4P         27.5000     3.2690    35.9700 o          1 ISP      -0.933500
      9 H11         27.3760     4.6470    38.3280 hc         1 ISP       0.005367
     10 H12         26.7780     4.5720    39.9900 hc         1 ISP       0.005367
     11 H13         28.4330     4.0440    39.6270 hc         1 ISP       0.005367
     12 H2          25.8690     2.6850    38.5930 h1         1 ISP       0.032700
     13 H31         26.4160     0.7840    40.1150 hc         1 ISP       0.005367
     14 H32         27.7810     1.7040    40.7950 hc         1 ISP       0.005367
     15 H33         26.1150     2.2700    41.0340 hc         1 ISP       0.005367
@<TRIPOS>BOND
     1     1     2 1   
     2     1     9 1   
     3     1    10 1   
     4     1    11 1   
     5     2     3 1   
     6     2     5 1   
     7     2    12 1   
     8     3    13 1   
     9     3    14 1   
    10     3    15 1   
    11     4     5 1   
    12     4     6 1   
    13     4     7 1   
    14     4     8 1   
@<TRIPOS>SUBSTRUCTURE
     1 ISP         1 TEMP              0 ****  ****    0 ROOT
