@<TRIPOS>MOLECULE
ISP
   15    14     1     0     0
SMALL
abcg2


@<TRIPOS>ATOM
      1 C1          27.4330     4.0840    39.3410 c3         1 ISP      -0.094600
      2 C2          26.9370     2.6870    38.9900 c3         1 ISP       0.241300
      3 C3          26.7880     1.8060    40.2230 c3         1 ISP      -0.094600
      4 P           27.4180     1.8320    36.4840 p5         1 ISP       1.275900
      5 O1P         27.8510     2.0570    38.0930 os         1 ISP      -0.593400
      6 O2P         28.6240     1.0660    35.9550 o          1 ISP      -0.933500
      7 O3P         26.1190     1.0260    36.5070 o          1 ISP      -0.933500
      8 O4P         27.2470     3.2280    35.8880 o          1 ISP      -0.933500
      9 H11         27.5260     4.6890    38.4380 hc         1 ISP       0.005367
     10 H12         26.7400     4.5820    40.0240 hc         1 ISP       0.005367
     11 H13         28.4120     4.0280    39.8240 hc         1 ISP       0.005367
     12 H2          25.9590     2.7710    38.5040 h1         1 ISP       0.032700
     13 H31         26.4180     0.8190    39.9420 hc         1 ISP       0.005367
     14 H32         27.7560     1.6830    40.7170 hc         1 ISP       0.005367
     15 H33         26.0910     2.2480    40.9390 hc         1 ISP       0.005367
@<TRIPOS>BOND
     1     1     2 1   
     2     1     9 1   
     3     1    10 1   
     4     1    11 1   
     5     2     3 1   
     6     2     5 1   
     7     2    12 1   
     8     3    13 1   
     9     3    14 1   
    10     3    15 1   
    11     4     5 1   
    12     4     6 1   
    13     4     7 1   
    14     4     8 1   
@<TRIPOS>SUBSTRUCTURE
     1 ISP         1 TEMP              0 ****  ****    0 ROOT
