@<TRIPOS>MOLECULE
ISQ
   17    18     1     0     0
SMALL
No Charge or Current Charge


@<TRIPOS>ATOM
      1 C1          -1.3450    -0.0040     1.2360 ca         1 ISQ       0.362900
      2 N2          -0.6970    -0.0190     2.4280 nb         1 ISQ      -0.665000
      3 C3           0.6560    -0.0460     2.4080 ca         1 ISQ       0.323900
      4 C4           1.4070    -0.0600     1.2190 ca         1 ISQ      -0.147000
      5 C4A          0.7340    -0.0450    -0.0130 ca         1 ISQ      -0.010000
      6 C5           1.4330    -0.0580    -1.2330 ca         1 ISQ      -0.105000
      7 C6           0.7230    -0.0420    -2.4470 ca         1 ISQ      -0.091000
      8 C7          -0.6840    -0.0140    -2.4400 ca         1 ISQ      -0.112000
      9 C8          -1.3850    -0.0010    -1.2200 ca         1 ISQ      -0.081000
     10 C8A         -0.6740    -0.0170    -0.0040 ca         1 ISQ      -0.100000
     11 H1          -2.4330     0.0180     1.2810 h4         1 ISQ       0.018100
     12 H3           1.1550    -0.0570     3.3770 h4         1 ISQ       0.019100
     13 H4           2.4920    -0.0820     1.2650 ha         1 ISQ       0.122000
     14 H5           2.5210    -0.0800    -1.2430 ha         1 ISQ       0.118000
     15 H6           1.2610    -0.0520    -3.3920 ha         1 ISQ       0.115000
     16 H7          -1.2310    -0.0020    -3.3800 ha         1 ISQ       0.116000
     17 H8          -2.4730     0.0210    -1.2220 ha         1 ISQ       0.117000
@<TRIPOS>BOND
     1     1     2 ar  
     2     1    10 ar  
     3     1    11 1   
     4     2     3 ar  
     5     3     4 ar  
     6     3    12 1   
     7     4     5 ar  
     8     4    13 1   
     9     5     6 ar  
    10     5    10 ar  
    11     6     7 ar  
    12     6    14 1   
    13     7     8 ar  
    14     7    15 1   
    15     8     9 ar  
    16     8    16 1   
    17     9    10 ar  
    18     9    17 1   
@<TRIPOS>SUBSTRUCTURE
     1 ISQ         1 TEMP              0 ****  ****    0 ROOT
