@<TRIPOS>MOLECULE
ISQ
   17    18     1     0     0
SMALL
bcc


@<TRIPOS>ATOM
      1 C1          -1.3220    -0.0050     1.2450 ca         1 ISQ       0.428200
      2 N2          -0.7010    -0.0190     2.3930 nb         1 ISQ      -0.665000
      3 C3           0.6520    -0.0460     2.3820 ca         1 ISQ       0.389200
      4 C4           1.3990    -0.0600     1.2380 ca         1 ISQ      -0.230300
      5 C4A          0.7460    -0.0460    -0.0140 ca         1 ISQ      -0.010000
      6 C5           1.4280    -0.0580    -1.2520 ca         1 ISQ      -0.123000
      7 C6           0.7200    -0.0430    -2.4240 ca         1 ISQ      -0.109000
      8 C7          -0.6920    -0.0130    -2.4170 ca         1 ISQ      -0.130000
      9 C8          -1.3750    -0.0010    -1.2320 ca         1 ISQ      -0.099000
     10 C8A         -0.6680    -0.0170    -0.0090 ca         1 ISQ      -0.165300
     11 H1          -2.4080     0.0160     1.2700 h4         1 ISQ       0.018100
     12 H3           1.1340    -0.0560     3.3520 h4         1 ISQ       0.019100
     13 H4           2.4800    -0.0810     1.2920 ha         1 ISQ       0.140000
     14 H5           2.5100    -0.0800    -1.2630 ha         1 ISQ       0.136000
     15 H6           1.2450    -0.0530    -3.3700 ha         1 ISQ       0.133000
     16 H7          -1.2300    -0.0010    -3.3550 ha         1 ISQ       0.134000
     17 H8          -2.4580     0.0210    -1.2170 ha         1 ISQ       0.135000
@<TRIPOS>BOND
     1     1     2 ar  
     2     1    10 ar  
     3     1    11 1   
     4     2     3 ar  
     5     3     4 ar  
     6     3    12 1   
     7     4     5 ar  
     8     4    13 1   
     9     5     6 ar  
    10     5    10 ar  
    11     6     7 ar  
    12     6    14 1   
    13     7     8 ar  
    14     7    15 1   
    15     8     9 ar  
    16     8    16 1   
    17     9    10 ar  
    18     9    17 1   
@<TRIPOS>SUBSTRUCTURE
     1 ISQ         1 TEMP              0 ****  ****    0 ROOT
