@<TRIPOS>MOLECULE
ISS
   22    21     1     0     0
SMALL
No Charge or Current Charge


@<TRIPOS>ATOM
      1 CAG         -4.5040    -0.2830    -0.5780 c          1 ISS       0.591100
      2 OAH         -5.5360     0.3540    -0.4130 o          1 ISS      -0.554100
      3 CAI         -3.1950     0.1760    -0.0590 ce         1 ISS      -0.475200
      4 CAJ         -2.0630    -0.5190    -0.2380 c2         1 ISS       0.114000
      5 NAK         -0.8930     0.0050     0.2900 nu         1 ISS      -0.822200
      6 CAL          0.4470    -0.6520     0.1920 c3         1 ISS       0.116800
      7 CAM          1.6030     0.1530     0.8620 c          1 ISS       0.565100
      8 OAN          1.4120     1.2010     1.4730 o          1 ISS      -0.512100
      9 CAO          3.0090    -0.4330     0.7170 c3         1 ISS      -0.187400
     10 CAP          3.7470     0.2350    -0.4530 c3         1 ISS       0.173600
     11 OAQ          5.0470    -0.3490    -0.5760 oh         1 ISS      -0.666000
     12 HAG         -4.5030    -1.2490    -1.1310 h4         1 ISS      -0.043800
     13 HAI         -3.2140     1.1220     0.4780 ha         1 ISS       0.200000
     14 HAJ         -1.9960    -1.4750    -0.7720 h4         1 ISS       0.177000
     15 HNAK        -0.9480     0.8930     0.8040 hn         1 ISS       0.514000
     16 HAL          0.4200    -1.6420     0.6670 h1         1 ISS       0.064700
     17 HALA         0.7190    -0.8000    -0.8620 h1         1 ISS       0.064700
     18 HAO          3.5730    -0.2600     1.6400 hc         1 ISS       0.080200
     19 HAOA         2.9380    -1.5040     0.4980 hc         1 ISS       0.080200
     20 HAP          3.1740     0.0930    -1.3800 h1         1 ISS       0.033700
     21 HAPA         3.8280     1.3150    -0.2660 h1         1 ISS       0.033700
     22 HOAQ         5.4970     0.1060    -1.3230 ho         1 ISS       0.451000
@<TRIPOS>BOND
     1     1     2 2   
     2     1     3 1   
     3     1    12 1   
     4     3     4 2   
     5     3    13 1   
     6     4     5 1   
     7     4    14 1   
     8     5     6 1   
     9     5    15 1   
    10     6     7 1   
    11     6    16 1   
    12     6    17 1   
    13     7     8 2   
    14     7     9 1   
    15     9    10 1   
    16     9    18 1   
    17     9    19 1   
    18    10    11 1   
    19    10    20 1   
    20    10    21 1   
    21    11    22 1   
@<TRIPOS>SUBSTRUCTURE
     1 ISS         1 TEMP              0 ****  ****    0 ROOT
