@<TRIPOS>MOLECULE
ISS
   22    21     1     0     0
SMALL
bcc


@<TRIPOS>ATOM
      1 CAG         -4.5250    -0.4330     0.0190 c          1 ISS       0.591100
      2 OAH         -5.6530     0.0450     0.0310 o          1 ISS      -0.554100
      3 CAI         -3.3010     0.2970    -0.0210 ce         1 ISS      -0.425200
      4 CAJ         -2.1270    -0.4000    -0.0310 c2         1 ISS       0.164000
      5 NAK         -0.9040     0.1150    -0.0650 nu         1 ISS      -0.767000
      6 CAL          0.2940    -0.6770    -0.0990 c3         1 ISS       0.116800
      7 CAM          1.5270     0.1950    -0.0190 c          1 ISS       0.565100
      8 OAN          1.4410     1.4000     0.0170 o          1 ISS      -0.512100
      9 CAO          2.8340    -0.5410     0.0070 c3         1 ISS      -0.187400
     10 CAP          4.0470     0.3690     0.0120 c3         1 ISS       0.150400
     11 OAQ          5.1920    -0.4540     0.0350 oh         1 ISS      -0.603800
     12 HAG         -4.3930    -1.5330     0.0410 h4         1 ISS      -0.043800
     13 HAI         -3.3130     1.3820    -0.0460 ha         1 ISS       0.150000
     14 HAJ         -2.1640    -1.4860    -0.0070 h4         1 ISS       0.127000
     15 HNAK        -0.7890     1.1190    -0.0940 hn         1 ISS       0.458800
     16 HAL          0.3240    -1.3900     0.7310 h1         1 ISS       0.064700
     17 HALA         0.3620    -1.2700    -1.0180 h1         1 ISS       0.064700
     18 HAO          2.8380    -1.1890     0.8900 hc         1 ISS       0.080200
     19 HAOA         2.8650    -1.2180    -0.8540 hc         1 ISS       0.080200
     20 HAP          4.0300     1.0100    -0.8780 h1         1 ISS       0.033700
     21 HAPA         4.0090     1.0300     0.8850 h1         1 ISS       0.033700
     22 HOAQ         5.9680     0.1150     0.0350 ho         1 ISS       0.412000
@<TRIPOS>BOND
     1     1     2 2   
     2     1     3 1   
     3     1    12 1   
     4     3     4 2   
     5     3    13 1   
     6     4     5 1   
     7     4    14 1   
     8     5     6 1   
     9     5    15 1   
    10     6     7 1   
    11     6    16 1   
    12     6    17 1   
    13     7     8 2   
    14     7     9 1   
    15     9    10 1   
    16     9    18 1   
    17     9    19 1   
    18    10    11 1   
    19    10    20 1   
    20    10    21 1   
    21    11    22 1   
@<TRIPOS>SUBSTRUCTURE
     1 ISS         1 TEMP              0 ****  ****    0 ROOT
