@<TRIPOS>MOLECULE
IST
   28    27     1     0     0
SMALL
No Charge or Current Charge


@<TRIPOS>ATOM
      1 C2           0.1570    -2.4760     1.9310 c3         1 IST      -0.090100
      2 C5           1.0550    -1.7220     2.9350 c3         1 IST      -0.070400
      3 C8           1.5140    -0.3060     2.4710 c3         1 IST      -0.095700
      4 C10          2.5520     0.2760     3.4700 c3         1 IST      -0.080100
      5 CA1          0.3280     0.6770     2.1680 c3         1 IST       0.165500
      6 C16          0.7690     2.0480     1.5130 c3         1 IST       0.215300
      7 O18          1.6030     1.8340     0.3680 oh         1 IST      -0.668000
      8 CA2         -0.3940     2.9650     1.0630 c3         1 IST      -0.231400
      9 C23         -1.1730     2.3180    -0.0840 c          1 IST       0.721000
     10 O24         -2.1960     1.7020     0.1680 o          1 IST      -0.739500
     11 O25         -0.6650     2.3680    -1.1940 o          1 IST      -0.739500
     12 N11         -0.4700     0.8830     3.4100 n8         1 IST      -0.983200
     13 H21         -0.8190    -1.9890     1.8240 hc         1 IST       0.033700
     14 H23          0.6330    -2.5260     0.9440 hc         1 IST       0.033700
     15 H22         -0.0180    -3.5020     2.2770 hc         1 IST       0.033700
     16 H51          1.9460    -2.3380     3.1110 hc         1 IST       0.017200
     17 H52          0.5370    -1.6550     3.9000 hc         1 IST       0.017200
     18 H8           2.0510    -0.4620     1.5270 hc         1 IST       0.073700
     19 H101         2.9690     1.2210     3.1050 hc         1 IST       0.020700
     20 H102         3.3890    -0.4200     3.6030 hc         1 IST       0.020700
     21 H103         2.1030     0.4530     4.4550 hc         1 IST       0.020700
     22 HA1         -0.3220     0.1830     1.4320 h1         1 IST       0.112700
     23 H16          1.3460     2.6060     2.2610 h1         1 IST      -0.027300
     24 H18          1.0140     2.0020    -0.4090 ho         1 IST       0.437000
     25 HA21         0.0970     3.8790     0.7060 hc         1 IST       0.025700
     26 HA22        -1.0400     3.1450     1.9300 hc         1 IST       0.025700
     27 H11          0.1310     1.3320     4.1080 hn         1 IST       0.375000
     28 H12         -0.6700    -0.0340     3.8180 hn         1 IST       0.375000
@<TRIPOS>BOND
     1     1     2 1   
     2     1    13 1   
     3     1    14 1   
     4     1    15 1   
     5     2     3 1   
     6     2    16 1   
     7     2    17 1   
     8     3     4 1   
     9     3     5 1   
    10     3    18 1   
    11     4    19 1   
    12     4    20 1   
    13     4    21 1   
    14     5     6 1   
    15     5    12 1   
    16     5    22 1   
    17     6     7 1   
    18     6     8 1   
    19     6    23 1   
    20     7    24 1   
    21     8     9 1   
    22     8    25 1   
    23     8    26 1   
    24     9    10 1   
    25     9    11 1   
    26    12    27 1   
    27    12    28 1   
@<TRIPOS>SUBSTRUCTURE
     1 IST         1 TEMP              0 ****  ****    0 ROOT
