@<TRIPOS>MOLECULE
IST
   28    27     1     0     0
SMALL
bcc


@<TRIPOS>ATOM
      1 C2           0.2570    -2.4870     1.9730 c3         1 IST      -0.090100
      2 C5           1.1440    -1.6860     2.9170 c3         1 IST      -0.070400
      3 C8           1.5700    -0.3100     2.3910 c3         1 IST      -0.095700
      4 C10          2.5550     0.3290     3.3670 c3         1 IST      -0.080100
      5 CA1          0.3540     0.5950     2.0840 c3         1 IST       0.165500
      6 C16          0.7530     1.9610     1.5120 c3         1 IST       0.192100
      7 O18          1.6810     1.7530     0.4670 oh         1 IST      -0.605800
      8 CA2         -0.4390     2.8150     1.0910 c3         1 IST      -0.231400
      9 C23         -1.4410     2.2500     0.0680 c          1 IST       0.931600
     10 O24         -2.5720     2.7840     0.0740 o          1 IST      -0.844800
     11 O25         -1.0630     1.3480    -0.7050 o          1 IST      -0.844800
     12 N11         -0.5250     0.8320     3.2210 n8         1 IST      -0.872800
     13 H21         -0.7070    -2.0070     1.7990 hc         1 IST       0.033700
     14 H23          0.7360    -2.6190     1.0010 hc         1 IST       0.033700
     15 H22          0.0540    -3.4790     2.3770 hc         1 IST       0.033700
     16 H51          2.0510    -2.2630     3.1200 hc         1 IST       0.017200
     17 H52          0.6500    -1.5780     3.8890 hc         1 IST       0.017200
     18 H8           2.0950    -0.4830     1.4450 hc         1 IST       0.073700
     19 H101         2.9660     1.2660     2.9890 hc         1 IST       0.020700
     20 H102         3.3970    -0.3400     3.5550 hc         1 IST       0.020700
     21 H103         2.0910     0.5360     4.3340 hc         1 IST       0.020700
     22 HA1         -0.2450     0.0950     1.3190 h1         1 IST       0.112700
     23 H16          1.2450     2.5210     2.3270 h1         1 IST      -0.027300
     24 H18          1.7600     2.5750    -0.0250 ho         1 IST       0.398000
     25 HA21        -0.0490     3.7570     0.6780 hc         1 IST       0.025700
     26 HA22        -0.9810     3.1110     1.9900 hc         1 IST       0.025700
     27 H11         -0.0020     1.2250     3.9950 hn         1 IST       0.319800
     28 H12         -0.9070    -0.0420     3.5580 hn         1 IST       0.319800
@<TRIPOS>BOND
     1     1     2 1   
     2     1    13 1   
     3     1    14 1   
     4     1    15 1   
     5     2     3 1   
     6     2    16 1   
     7     2    17 1   
     8     3     4 1   
     9     3     5 1   
    10     3    18 1   
    11     4    19 1   
    12     4    20 1   
    13     4    21 1   
    14     5     6 1   
    15     5    12 1   
    16     5    22 1   
    17     6     7 1   
    18     6     8 1   
    19     6    23 1   
    20     7    24 1   
    21     8     9 1   
    22     8    25 1   
    23     8    26 1   
    24     9    10 1   
    25     9    11 1   
    26    12    27 1   
    27    12    28 1   
@<TRIPOS>SUBSTRUCTURE
     1 IST         1 TEMP              0 ****  ****    0 ROOT
