@<TRIPOS>MOLECULE
ISU
   14    13     1     0     0
SMALL
No Charge or Current Charge


@<TRIPOS>ATOM
      1 C1           0.4270    -0.0200     2.7810 c3         1 ISU      -0.094100
      2 C2           1.0190     0.0090     1.3620 c3         1 ISU       0.153600
      3 SE          -0.3360     0.0940     0.1040 ss         1 ISU      -0.467200
      4 C3           0.5700     0.1180    -1.4040 c2         1 ISU       0.720100
      5 N1          -0.2500     0.1830    -2.4540 nv         1 ISU      -1.063200
      6 N2           1.8210     0.0720    -1.5040 n2         1 ISU      -0.848100
      7 HC11         1.2290    -0.0710     3.5270 hc         1 ISU       0.045033
      8 HC12        -0.1640     0.8830     2.9710 hc         1 ISU       0.045033
      9 HC13        -0.2200    -0.8950     2.9110 hc         1 ISU       0.045033
     10 HC21         1.6740     0.8840     1.2520 h1         1 ISU       0.073200
     11 HC22         1.6180    -0.8960     1.1920 h1         1 ISU       0.073200
     12 HN11         0.0300    -0.4160    -3.2210 hn         1 ISU       0.466500
     13 HN12        -1.2200     0.0760    -2.1830 hn         1 ISU       0.466500
     14 HN2          2.0520     0.1380    -2.5020 hn         1 ISU       0.382400
@<TRIPOS>BOND
     1     1     2 1   
     2     1     7 1   
     3     1     8 1   
     4     1     9 1   
     5     2     3 1   
     6     2    10 1   
     7     2    11 1   
     8     3     4 1   
     9     4     5 1   
    10     4     6 2   
    11     5    12 1   
    12     5    13 1   
    13     6    14 1   
@<TRIPOS>SUBSTRUCTURE
     1 ISU         1 TEMP              0 ****  ****    0 ROOT
