@<TRIPOS>MOLECULE
ISU
   14    13     1     0     0
SMALL
bcc


@<TRIPOS>ATOM
      1 C1           0.4860     0.0070     2.8540 c3         1 ISU      -0.094100
      2 C2           1.0020    -0.0060     1.4250 c3         1 ISU       0.105700
      3 SE          -0.4970     0.1790     0.1790 ss         1 ISU      -0.419300
      4 C3           0.4910     0.1070    -1.4660 c2         1 ISU       0.720100
      5 N1          -0.3220     0.1110    -2.5600 nv         1 ISU      -0.952800
      6 N2           1.7580     0.1270    -1.4320 n2         1 ISU      -0.848100
      7 HC11         1.3280    -0.1060     3.5380 hc         1 ISU       0.045033
      8 HC12        -0.0130     0.9440     3.1020 hc         1 ISU       0.045033
      9 HC13        -0.2070    -0.8110     3.0500 hc         1 ISU       0.045033
     10 HC21         1.6960     0.8160     1.2480 h1         1 ISU       0.073200
     11 HC22         1.5190    -0.9380     1.1990 h1         1 ISU       0.073200
     12 HN11         0.1130    -0.0780    -3.4510 hn         1 ISU       0.411300
     13 HN12        -1.2550    -0.2620    -2.4860 hn         1 ISU       0.411300
     14 HN2          2.1510     0.0690    -2.3700 hn         1 ISU       0.382400
@<TRIPOS>BOND
     1     1     2 1   
     2     1     7 1   
     3     1     8 1   
     4     1     9 1   
     5     2     3 1   
     6     2    10 1   
     7     2    11 1   
     8     3     4 1   
     9     4     5 1   
    10     4     6 2   
    11     5    12 1   
    12     5    13 1   
    13     6    14 1   
@<TRIPOS>SUBSTRUCTURE
     1 ISU         1 TEMP              0 ****  ****    0 ROOT
