@<TRIPOS>MOLECULE
ISX
   44    45     1     0     0
SMALL
No Charge or Current Charge


@<TRIPOS>ATOM
      1 O6A         15.0250    35.1160    16.6140 oh         1 ISX      -0.671000
      2 C5A         19.2360    33.8610    14.7540 c6         1 ISX       0.124800
      3 N5          18.0940    33.2340    14.0320 n7         1 ISX      -0.839400
      4 C4A         19.2040    33.5610    16.2860 c6         1 ISX       0.139300
      5 O1          20.2840    34.2320    16.9870 os         1 ISX      -0.419000
      6 C3A         17.8180    33.9870    16.8740 c6         1 ISX       0.174300
      7 O3A         17.7260    33.6620    18.2760 oh         1 ISX      -0.713000
      8 C2A         16.6540    33.3200    16.0810 c6         1 ISX      -0.126700
      9 C1A         16.7770    33.6530    14.5700 c6         1 ISX       0.152800
     10 C1          21.6100    33.7110    16.7540 c6         1 ISX       0.400300
     11 C2          22.7010    34.6730    17.3400 c6         1 ISX       0.152300
     12 O2          22.6740    36.0000    16.7600 oh         1 ISX      -0.712000
     13 C3          24.1010    34.0340    17.1140 c6         1 ISX       0.131300
     14 O3          25.1360    34.8630    17.6730 oh         1 ISX      -0.668000
     15 C4          24.1570    32.6080    17.7360 c6         1 ISX       0.111300
     16 O4          25.4540    32.0180    17.4830 oh         1 ISX      -0.735000
     17 C5          22.9850    31.7480    17.1510 c6         1 ISX       0.157300
     18 C6A         15.2420    33.7000    16.6170 c3         1 ISX       0.165600
     19 C6          22.9000    30.3150    17.7770 c3         1 ISX       0.165600
     20 O6          22.6800    30.3170    19.2030 oh         1 ISX      -0.716000
     21 O5          21.7210    32.4190    17.3890 os         1 ISX      -0.466000
     22 H6          14.0960    35.2640    16.9020 ho         1 ISX       0.443000
     23 H5C2        20.1760    33.4920    14.3190 h1         1 ISX       0.068700
     24 H5A         18.1690    32.2110    14.1120 hn         1 ISX       0.400000
     25 H4A         19.3120    32.4760    16.4320 h1         1 ISX       0.053700
     26 H3A         17.7370    35.0780    16.7440 h1         1 ISX       0.065700
     27 HA          17.0090    34.2270    18.6410 ho         1 ISX       0.503000
     28 H2A         16.7310    32.2300    16.1970 hc         1 ISX       0.056700
     29 H1C1        15.9750    33.1460    14.0120 h1         1 ISX       0.063200
     30 H1C2        16.6460    34.7360    14.4170 h1         1 ISX       0.063200
     31 H1          21.7820    33.6040    15.6730 h2         1 ISX       0.029700
     32 H2          22.5280    34.7390    18.4250 h1         1 ISX       0.076700
     33 HO2         23.5660    36.3750    16.9600 ho         1 ISX       0.522000
     34 H3          24.2580    33.9330    16.0290 h1         1 ISX       0.050700
     35 HO3         25.9240    34.2730    17.7300 ho         1 ISX       0.462000
     36 H4          23.9920    32.7050    18.8210 h1         1 ISX       0.080700
     37 HO4         25.5670    31.2760    18.1240 ho         1 ISX       0.514000
     38 H5          23.1230    31.6350    16.0650 h1         1 ISX       0.045700
     39 H6C1        14.4880    33.2010    15.9930 h1         1 ISX       0.026200
     40 H6C2        15.1290    33.3030    17.6350 h1         1 ISX       0.026200
     41 H61         23.8250    29.7730    17.5370 h1         1 ISX       0.035200
     42 H62         22.0820    29.7820    17.2740 h1         1 ISX       0.035200
     43 HO6         22.4810    29.3870    19.4650 ho         1 ISX       0.503000
     44 H5C1        19.2110    34.9510    14.6020 h1         1 ISX       0.068700
@<TRIPOS>BOND
     1     1    18 1   
     2     1    22 1   
     3     2     3 1   
     4     2     4 1   
     5     2    23 1   
     6     2    44 1   
     7     3     9 1   
     8     3    24 1   
     9     4     5 1   
    10     4     6 1   
    11     4    25 1   
    12     5    10 1   
    13     6     7 1   
    14     6     8 1   
    15     6    26 1   
    16     7    27 1   
    17     8     9 1   
    18     8    18 1   
    19     8    28 1   
    20     9    29 1   
    21     9    30 1   
    22    10    11 1   
    23    10    21 1   
    24    10    31 1   
    25    11    12 1   
    26    11    13 1   
    27    11    32 1   
    28    12    33 1   
    29    13    14 1   
    30    13    15 1   
    31    13    34 1   
    32    14    35 1   
    33    15    16 1   
    34    15    17 1   
    35    15    36 1   
    36    16    37 1   
    37    17    19 1   
    38    17    21 1   
    39    17    38 1   
    40    18    39 1   
    41    18    40 1   
    42    19    20 1   
    43    19    41 1   
    44    19    42 1   
    45    20    43 1   
@<TRIPOS>SUBSTRUCTURE
     1 ISX         1 TEMP              0 ****  ****    0 ROOT
