@<TRIPOS>MOLECULE
ISX
   44    45     1     0     0
SMALL
abcg2


@<TRIPOS>ATOM
      1 O6A         15.2830    34.7920    17.0670 oh         1 ISX      -0.671000
      2 C5A         19.1590    34.3190    14.6150 c6         1 ISX       0.124800
      3 N5          18.0060    33.8830    13.8340 n7         1 ISX      -0.839400
      4 C4A         19.2910    33.6170    15.9720 c6         1 ISX       0.139300
      5 O1          20.3660    34.2230    16.7100 os         1 ISX      -0.419000
      6 C3A         18.0130    33.7480    16.7830 c6         1 ISX       0.174300
      7 O3A         18.1570    32.9680    17.9750 oh         1 ISX      -0.713000
      8 C2A         16.8050    33.2850    15.9550 c6         1 ISX      -0.126700
      9 C1A         16.7670    34.0110    14.6020 c6         1 ISX       0.152800
     10 C1          21.5970    33.5990    16.5850 c6         1 ISX       0.400300
     11 C2          22.6850    34.5700    17.0260 c6         1 ISX       0.152300
     12 O2          22.7210    35.6510    16.1040 oh         1 ISX      -0.712000
     13 C3          24.0300    33.8600    17.0830 c6         1 ISX       0.131300
     14 O3          24.9680    34.7900    17.6200 oh         1 ISX      -0.668000
     15 C4          23.9560    32.5840    17.9050 c6         1 ISX       0.111300
     16 O4          25.2230    31.9390    17.7870 oh         1 ISX      -0.735000
     17 C5          22.8160    31.7090    17.3720 c6         1 ISX       0.157300
     18 C6A         15.4930    33.4190    16.7130 c3         1 ISX       0.165600
     19 C6          22.6250    30.4160    18.1310 c3         1 ISX       0.165600
     20 O6          22.4510    30.6920    19.5200 oh         1 ISX      -0.716000
     21 O5          21.6000    32.4560    17.4340 os         1 ISX      -0.466000
     22 H6          14.4650    34.8500    17.5740 ho         1 ISX       0.443000
     23 H5C2        20.0690    34.1590    14.0350 h1         1 ISX       0.068700
     24 H5A         18.1330    32.9120    13.5630 hn         1 ISX       0.400000
     25 H4A         19.5030    32.5530    15.8300 h1         1 ISX       0.053700
     26 H3A         17.8870    34.8030    17.0500 h1         1 ISX       0.065700
     27 HA          17.5550    33.3150    18.6430 ho         1 ISX       0.503000
     28 H2A         16.9390    32.2150    15.7580 hc         1 ISX       0.056700
     29 H1C1        15.9410    33.6200    14.0040 h1         1 ISX       0.063200
     30 H1C2        16.5780    35.0750    14.7620 h1         1 ISX       0.063200
     31 H1          21.7790    33.2750    15.5500 h2         1 ISX       0.029700
     32 H2          22.4270    34.9280    18.0300 h1         1 ISX       0.076700
     33 HO2         23.5010    36.1820    16.3140 ho         1 ISX       0.522000
     34 H3          24.3240    33.5900    16.0610 h1         1 ISX       0.050700
     35 HO3         25.8370    34.3680    17.6100 ho         1 ISX       0.462000
     36 H4          23.7530    32.8370    18.9490 h1         1 ISX       0.080700
     37 HO4         25.3650    31.3840    18.5640 ho         1 ISX       0.514000
     38 H5          23.0350    31.4450    16.3280 h1         1 ISX       0.045700
     39 H6C1        14.6750    33.0620    16.0780 h1         1 ISX       0.026200
     40 H6C2        15.5140    32.7970    17.6120 h1         1 ISX       0.026200
     41 H61         23.5050    29.7850    17.9660 h1         1 ISX       0.035200
     42 H62         21.7510    29.8980    17.7230 h1         1 ISX       0.035200
     43 HO6         22.3670    29.8510    19.9860 ho         1 ISX       0.503000
     44 H5C1        19.0710    35.3940    14.7990 h1         1 ISX       0.068700
@<TRIPOS>BOND
     1     1    18 1   
     2     1    22 1   
     3     2     3 1   
     4     2     4 1   
     5     2    23 1   
     6     2    44 1   
     7     3     9 1   
     8     3    24 1   
     9     4     5 1   
    10     4     6 1   
    11     4    25 1   
    12     5    10 1   
    13     6     7 1   
    14     6     8 1   
    15     6    26 1   
    16     7    27 1   
    17     8     9 1   
    18     8    18 1   
    19     8    28 1   
    20     9    29 1   
    21     9    30 1   
    22    10    11 1   
    23    10    21 1   
    24    10    31 1   
    25    11    12 1   
    26    11    13 1   
    27    11    32 1   
    28    12    33 1   
    29    13    14 1   
    30    13    15 1   
    31    13    34 1   
    32    14    35 1   
    33    15    16 1   
    34    15    17 1   
    35    15    36 1   
    36    16    37 1   
    37    17    19 1   
    38    17    21 1   
    39    17    38 1   
    40    18    39 1   
    41    18    40 1   
    42    19    20 1   
    43    19    41 1   
    44    19    42 1   
    45    20    43 1   
@<TRIPOS>SUBSTRUCTURE
     1 ISX         1 TEMP              0 ****  ****    0 ROOT
