@<TRIPOS>MOLECULE
ISZ
   15    15     1     0     0
SMALL
No Charge or Current Charge


@<TRIPOS>ATOM
      1 C2           0.2600    -0.2490     1.0240 ca         1 ISZ      -0.112500
      2 C4          -0.5740    -1.2820     1.4880 ca         1 ISZ       0.326900
      3 N1          -0.3260    -1.9830     2.6180 nb         1 ISZ      -0.644000
      4 C5           0.7830    -1.6610     3.3240 ca         1 ISZ       0.326900
      5 C3           1.6720    -0.6450     2.9340 ca         1 ISZ      -0.112500
      6 C1           1.4240     0.0950     1.7550 ca         1 ISZ      -0.121600
      7 C6           2.3760     1.1970     1.3200 c          1 ISZ       0.691100
      8 O1           3.3490     1.5000     2.0020 o          1 ISZ      -0.489100
      9 N2           2.0490     1.8420     0.1100 ne         1 ISZ      -0.275400
     10 N3           2.6960     1.4120    -0.9020 n2         1 ISZ      -0.315400
     11 H2          -0.0120     0.2650     0.1060 ha         1 ISZ       0.139500
     12 H4          -1.4720    -1.5560     0.9360 h4         1 ISZ       0.026100
     13 H5           0.9640    -2.2380     4.2310 h4         1 ISZ       0.026100
     14 H3           2.5440    -0.4420     3.5520 ha         1 ISZ       0.139500
     15 HN1          2.3850     1.9610    -1.7220 hn         1 ISZ       0.395400
@<TRIPOS>BOND
     1     1     2 ar  
     2     1     6 ar  
     3     1    11 1   
     4     2     3 ar  
     5     2    12 1   
     6     3     4 ar  
     7     4     5 ar  
     8     4    13 1   
     9     5     6 ar  
    10     5    14 1   
    11     6     7 1   
    12     7     8 2   
    13     7     9 1   
    14     9    10 2   
    15    10    15 1   
@<TRIPOS>SUBSTRUCTURE
     1 ISZ         1 TEMP              0 ****  ****    0 ROOT
