@<TRIPOS>MOLECULE
ISZ
   15    15     1     0     0
SMALL
bcc


@<TRIPOS>ATOM
      1 C2           0.2590    -0.2790     1.0260 ca         1 ISZ      -0.195800
      2 C4          -0.5630    -1.2840     1.5170 ca         1 ISZ       0.392200
      3 N1          -0.3170    -1.9460     2.6390 nb         1 ISZ      -0.644000
      4 C5           0.7760    -1.6270     3.3240 ca         1 ISZ       0.392200
      5 C3           1.6650    -0.6420     2.9250 ca         1 ISZ      -0.195800
      6 C1           1.4010     0.0480     1.7470 ca         1 ISZ      -0.121600
      7 C6           2.3520     1.0870     1.2890 c          1 ISZ       0.691100
      8 O1           3.3090     1.4560     1.9160 o          1 ISZ      -0.489100
      9 N2           1.9990     1.7250     0.0690 ne         1 ISZ      -0.275400
     10 N3           2.7720     1.5340    -0.8620 n2         1 ISZ      -0.315400
     11 H2          -0.0080     0.2260     0.1080 ha         1 ISZ       0.157500
     12 H4          -1.4600    -1.5600     0.9750 h4         1 ISZ       0.026100
     13 H5           0.9560    -2.1810     4.2380 h4         1 ISZ       0.026100
     14 H3           2.5400    -0.4270     3.5220 ha         1 ISZ       0.157500
     15 HN1          2.4370     2.0850    -1.6590 hn         1 ISZ       0.395400
@<TRIPOS>BOND
     1     1     2 ar  
     2     1     6 ar  
     3     1    11 1   
     4     2     3 ar  
     5     2    12 1   
     6     3     4 ar  
     7     4     5 ar  
     8     4    13 1   
     9     5     6 ar  
    10     5    14 1   
    11     6     7 1   
    12     7     8 2   
    13     7     9 1   
    14     9    10 2   
    15    10    15 1   
@<TRIPOS>SUBSTRUCTURE
     1 ISZ         1 TEMP              0 ****  ****    0 ROOT
