@<TRIPOS>MOLECULE
IT0
   35    37     1     0     0
SMALL
No Charge or Current Charge


@<TRIPOS>ATOM
      1 O01        -46.7830    16.8310    15.6740 o          1 IT0      -0.715000
      2 C02        -45.9370    17.5430    15.1480 c          1 IT0       0.733600
      3 O03        -44.7920    17.1770    14.9200 o          1 IT0      -0.715000
      4 C04        -46.3050    18.9750    14.8250 ca         1 IT0      -0.049600
      5 C05        -46.6240    19.8900    15.8630 ca         1 IT0      -0.054200
      6 N06        -46.6010    19.5000    17.2050 na         1 IT0       0.279000
      7 N07        -45.4290    19.2240    17.8340 nc         1 IT0      -0.145800
      8 N08        -45.7500    19.0470    19.0920 nd         1 IT0      -0.412000
      9 C09        -47.1110    19.2660    19.2500 cd         1 IT0       0.145300
     10 C10        -47.7930    19.1670    20.5910 c3         1 IT0      -0.036400
     11 C11        -48.8800    20.2150    20.7940 ca         1 IT0      -0.052300
     12 C12        -50.2360    19.8870    20.5930 ca         1 IT0      -0.106000
     13 C13        -51.2340    20.8610    20.7710 ca         1 IT0      -0.122500
     14 C14        -50.8830    22.1670    21.1490 ca         1 IT0      -0.136000
     15 C15        -49.5330    22.5000    21.3480 ca         1 IT0      -0.122500
     16 C16        -48.5340    21.5270    21.1700 ca         1 IT0      -0.106000
     17 C17        -47.6740    19.5820    18.0440 cc         1 IT0      -0.182000
     18 C18        -46.9590    21.2220    15.5460 ca         1 IT0      -0.158000
     19 C19        -46.9650    21.6550    14.2140 ca         1 IT0      -0.163000
     20 C20        -46.6430    20.7600    13.1850 ca         1 IT0      -0.109000
     21 C21        -46.3180    19.4170    13.4760 ca         1 IT0      -0.084600
     22 C22        -46.0090    18.4690    12.3400 c          1 IT0       0.728600
     23 O23        -46.6910    17.4610    12.2230 o          1 IT0      -0.726000
     24 O24        -45.1610    18.8050    11.5230 o          1 IT0      -0.726000
     25 H2         -48.2170    18.1610    20.7000 hc         1 IT0       0.053200
     26 H3         -47.0490    19.2580    21.3910 hc         1 IT0       0.053200
     27 H4         -50.5160    18.8780    20.2960 ha         1 IT0       0.123000
     28 H5         -52.2790    20.6020    20.6150 ha         1 IT0       0.097000
     29 H6         -51.6550    22.9200    21.2860 ha         1 IT0       0.092000
     30 H7         -49.2590    23.5120    21.6380 ha         1 IT0       0.097000
     31 H8         -47.4900    21.7930    21.3210 ha         1 IT0       0.123000
     32 H9         -48.6780    19.8370    17.7370 h4         1 IT0       0.153000
     33 H10        -47.2030    21.9270    16.3380 ha         1 IT0       0.075000
     34 H11        -47.2180    22.6860    13.9780 ha         1 IT0       0.068000
     35 H12        -46.6550    21.1020    12.1520 ha         1 IT0       0.099000
@<TRIPOS>BOND
     1     1     2 1   
     2     2     3 1   
     3     2     4 1   
     4     4     5 ar  
     5     4    21 ar  
     6     5     6 1   
     7     5    18 ar  
     8     6     7 1   
     9     6    17 1   
    10     7     8 2   
    11     8     9 1   
    12     9    10 1   
    13     9    17 2   
    14    10    11 1   
    15    10    25 1   
    16    10    26 1   
    17    11    12 ar  
    18    11    16 ar  
    19    12    13 ar  
    20    12    27 1   
    21    13    14 ar  
    22    13    28 1   
    23    14    15 ar  
    24    14    29 1   
    25    15    16 ar  
    26    15    30 1   
    27    16    31 1   
    28    17    32 1   
    29    18    19 ar  
    30    18    33 1   
    31    19    20 ar  
    32    19    34 1   
    33    20    21 ar  
    34    20    35 1   
    35    21    22 1   
    36    22    23 1   
    37    22    24 1   
@<TRIPOS>SUBSTRUCTURE
     1 IT0         1 TEMP              0 ****  ****    0 ROOT
