@<TRIPOS>MOLECULE
IT0
   35    37     1     0     0
SMALL
abcg2


@<TRIPOS>ATOM
      1 O01        -46.1150    16.9800    15.8500 o          1 IT0      -0.715000
      2 C02        -45.3520    17.8700    15.4030 c          1 IT0       0.733600
      3 O03        -44.0990    17.8810    15.4300 o          1 IT0      -0.715000
      4 C04        -46.0270    19.0800    14.7620 ca         1 IT0      -0.049600
      5 C05        -46.8350    19.9300    15.5210 ca         1 IT0      -0.054200
      6 N06        -47.0030    19.6920    16.9210 na         1 IT0       0.279000
      7 N07        -45.9580    19.7080    17.7650 nc         1 IT0      -0.145800
      8 N08        -46.4190    19.4450    18.9590 nd         1 IT0      -0.412000
      9 C09        -47.7670    19.2590    18.8980 cd         1 IT0       0.145300
     10 C10        -48.5910    18.9610    20.1060 c3         1 IT0      -0.036400
     11 C11        -49.1960    20.1780    20.7820 ca         1 IT0      -0.052300
     12 C12        -50.4290    20.0690    21.4260 ca         1 IT0      -0.106000
     13 C13        -50.9860    21.1560    22.0920 ca         1 IT0      -0.122500
     14 C14        -50.3150    22.3760    22.1200 ca         1 IT0      -0.136000
     15 C15        -49.0880    22.4960    21.4760 ca         1 IT0      -0.122500
     16 C16        -48.5330    21.4060    20.8120 ca         1 IT0      -0.106000
     17 C17        -48.1480    19.4200    17.5860 cc         1 IT0      -0.182000
     18 C18        -47.4920    21.0240    14.9690 ca         1 IT0      -0.158000
     19 C19        -47.3400    21.2880    13.6150 ca         1 IT0      -0.163000
     20 C20        -46.5160    20.4750    12.8470 ca         1 IT0      -0.109000
     21 C21        -45.8610    19.3740    13.4020 ca         1 IT0      -0.084600
     22 C22        -45.0130    18.5000    12.4850 c          1 IT0       0.728600
     23 O23        -45.3430    17.2930    12.3900 o          1 IT0      -0.726000
     24 O24        -44.0800    19.0780    11.8740 o          1 IT0      -0.726000
     25 H2         -49.3940    18.2720    19.8370 hc         1 IT0       0.053200
     26 H3         -47.9570    18.4340    20.8260 hc         1 IT0       0.053200
     27 H4         -50.9580    19.1240    21.4030 ha         1 IT0       0.123000
     28 H5         -51.9450    21.0520    22.5840 ha         1 IT0       0.097000
     29 H6         -50.7470    23.2240    22.6360 ha         1 IT0       0.092000
     30 H7         -48.5590    23.4410    21.4890 ha         1 IT0       0.097000
     31 H8         -47.5780    21.5130    20.3130 ha         1 IT0       0.123000
     32 H9         -49.0990    19.3470    17.0890 h4         1 IT0       0.153000
     33 H10        -48.0980    21.6590    15.6010 ha         1 IT0       0.075000
     34 H11        -47.8470    22.1330    13.1670 ha         1 IT0       0.068000
     35 H12        -46.3750    20.6900    11.7950 ha         1 IT0       0.099000
@<TRIPOS>BOND
     1     1     2 1   
     2     2     3 1   
     3     2     4 1   
     4     4     5 ar  
     5     4    21 ar  
     6     5     6 1   
     7     5    18 ar  
     8     6     7 1   
     9     6    17 1   
    10     7     8 2   
    11     8     9 1   
    12     9    10 1   
    13     9    17 2   
    14    10    11 1   
    15    10    25 1   
    16    10    26 1   
    17    11    12 ar  
    18    11    16 ar  
    19    12    13 ar  
    20    12    27 1   
    21    13    14 ar  
    22    13    28 1   
    23    14    15 ar  
    24    14    29 1   
    25    15    16 ar  
    26    15    30 1   
    27    16    31 1   
    28    17    32 1   
    29    18    19 ar  
    30    18    33 1   
    31    19    20 ar  
    32    19    34 1   
    33    20    21 ar  
    34    20    35 1   
    35    21    22 1   
    36    22    23 1   
    37    22    24 1   
@<TRIPOS>SUBSTRUCTURE
     1 IT0         1 TEMP              0 ****  ****    0 ROOT
