@<TRIPOS>MOLECULE
IT2
   18    18     1     0     0
SMALL
No Charge or Current Charge


@<TRIPOS>ATOM
      1 N           -0.1170    -0.0060    -0.0540 n          1 IT2      -0.292800
      2 SAA          2.1440     1.4810    -0.2690 sh         1 IT2      -0.303400
      3 SAB          2.1430    -1.5020    -0.2960 s          1 IT2      -0.583400
      4 CAC         -2.4360    -1.1140     0.2590 c6         1 IT2       0.136100
      5 CAD         -2.3540     1.2620     0.2860 c6         1 IT2       0.136100
      6 CAE         -0.9540    -1.2470    -0.1680 c6         1 IT2       0.037000
      7 CAF         -0.8610     1.3000    -0.1270 c6         1 IT2       0.037000
      8 OAG         -3.0010     0.1000    -0.2560 os         1 IT2      -0.439000
      9 CAH          1.2620    -0.0820    -0.1890 cs         1 IT2       0.422000
     10 HSAA         3.3390     0.8600    -0.3950 hs         1 IT2       0.265800
     11 HAC         -3.0120    -1.9720    -0.1160 h1         1 IT2       0.062450
     12 HACA        -2.5110    -1.1120     1.3570 h1         1 IT2       0.062450
     13 HAD         -2.4370     1.2420     1.3820 h1         1 IT2       0.062450
     14 HADA        -2.8660     2.1650    -0.0740 h1         1 IT2       0.062450
     15 HAE         -0.9270    -1.5810    -1.2150 h1         1 IT2       0.083200
     16 HAEA        -0.5020    -2.0490     0.4310 h1         1 IT2       0.083200
     17 HAF         -0.3680     2.0440     0.5140 h1         1 IT2       0.083200
     18 HAFA        -0.7990     1.6740    -1.1590 h1         1 IT2       0.083200
@<TRIPOS>BOND
     1     1     6 1   
     2     1     7 1   
     3     1     9 1   
     4     2     9 1   
     5     2    10 1   
     6     3     9 2   
     7     4     6 1   
     8     4     8 1   
     9     4    11 1   
    10     4    12 1   
    11     5     7 1   
    12     5     8 1   
    13     5    13 1   
    14     5    14 1   
    15     6    15 1   
    16     6    16 1   
    17     7    17 1   
    18     7    18 1   
@<TRIPOS>SUBSTRUCTURE
     1 IT2         1 TEMP              0 ****  ****    0 ROOT
