@<TRIPOS>MOLECULE
IT2
   18    18     1     0     0
SMALL
bcc


@<TRIPOS>ATOM
      1 N           -0.1900    -0.0110    -0.3370 n          1 IT2      -0.359800
      2 SAA          1.9220     1.4570     0.1720 sh         1 IT2      -0.303400
      3 SAB          1.9360    -1.5200     0.2120 s          1 IT2      -0.583400
      4 CAC         -2.2430    -1.0860     0.3970 c6         1 IT2       0.112900
      5 CAD         -2.1470     1.2360     0.3940 c6         1 IT2       0.112900
      6 CAE         -1.0390    -1.1820    -0.5240 c6         1 IT2       0.037000
      7 CAF         -0.9400     1.2260    -0.5300 c6         1 IT2       0.037000
      8 OAG         -2.9620     0.1080     0.1930 os         1 IT2      -0.392600
      9 CAH          1.0940    -0.0970    -0.0140 cs         1 IT2       0.489000
     10 HSAA         3.1060     0.9170     0.4720 hs         1 IT2       0.265800
     11 HAC         -2.9190    -1.9170     0.1950 h1         1 IT2       0.062450
     12 HACA        -1.9090    -1.1670     1.4410 h1         1 IT2       0.062450
     13 HAD         -1.8010     1.2900     1.4350 h1         1 IT2       0.062450
     14 HADA        -2.7500     2.1220     0.1910 h1         1 IT2       0.062450
     15 HAE         -1.3570    -1.2110    -1.5700 h1         1 IT2       0.083200
     16 HAEA        -0.4720    -2.0840    -0.3130 h1         1 IT2       0.083200
     17 HAF         -0.3330     2.1070    -0.3300 h1         1 IT2       0.083200
     18 HAFA        -1.2540     1.2780    -1.5760 h1         1 IT2       0.083200
@<TRIPOS>BOND
     1     1     6 1   
     2     1     7 1   
     3     1     9 1   
     4     2     9 1   
     5     2    10 1   
     6     3     9 2   
     7     4     6 1   
     8     4     8 1   
     9     4    11 1   
    10     4    12 1   
    11     5     7 1   
    12     5     8 1   
    13     5    13 1   
    14     5    14 1   
    15     6    15 1   
    16     6    16 1   
    17     7    17 1   
    18     7    18 1   
@<TRIPOS>SUBSTRUCTURE
     1 IT2         1 TEMP              0 ****  ****    0 ROOT
