@<TRIPOS>MOLECULE
IT4
   15    15     1     0     0
SMALL
No Charge or Current Charge


@<TRIPOS>ATOM
      1 C4         -10.3310    -5.4220    -1.1200 ca         1 IT4      -0.150000
      2 C5          -9.6260    -6.1210    -0.1300 ca         1 IT4       0.008100
      3 C6         -10.2950    -6.6020     1.0060 ca         1 IT4      -0.224000
      4 C7         -11.6760    -6.3890     1.1540 ca         1 IT4       0.157100
      5 C3         -11.7130    -5.2060    -0.9760 ca         1 IT4      -0.067000
      6 O1         -14.6250    -6.4190     0.2850 o          1 IT4      -0.708000
      7 O2         -14.2650    -4.2940     0.2820 o          1 IT4      -0.708000
      8 C2         -12.3960    -5.6930     0.1590 ca         1 IT4      -0.138600
      9 Br1         -7.7480    -6.4130    -0.3230 br         1 IT4      -0.172100
     10 O3         -12.2940    -6.8450     2.2810 oh         1 IT4      -0.490100
     11 H1          -9.8120    -5.0460    -1.9980 ha         1 IT4       0.107000
     12 H2          -9.7360    -7.1350     1.7710 ha         1 IT4       0.102000
     13 H3         -12.2570    -4.6630    -1.7460 ha         1 IT4       0.129000
     14 H5         -11.6250    -7.2960     2.8350 ho         1 IT4       0.431000
     15 C1         -13.8740    -5.4530     0.2890 c          1 IT4       0.723600
@<TRIPOS>BOND
     1     1     2 ar  
     2     1     5 ar  
     3     1    11 1   
     4     2     3 ar  
     5     2     9 1   
     6     3     4 ar  
     7     3    12 1   
     8     4     8 ar  
     9     4    10 1   
    10     5     8 ar  
    11     5    13 1   
    12     6    15 1   
    13     7    15 1   
    14     8    15 1   
    15    10    14 1   
@<TRIPOS>SUBSTRUCTURE
     1 IT4         1 TEMP              0 ****  ****    0 ROOT
