@<TRIPOS>MOLECULE
IT4
   15    15     1     0     0
SMALL
bcc


@<TRIPOS>ATOM
      1 C4         -10.3250    -5.3930    -1.0990 ca         1 IT4      -0.168000
      2 C5          -9.6440    -6.1190    -0.1380 ca         1 IT4       0.008100
      3 C6         -10.2880    -6.6240     0.9780 ca         1 IT4      -0.242000
      4 C7         -11.6600    -6.4160     1.1360 ca         1 IT4       0.157100
      5 C3         -11.6840    -5.1820    -0.9080 ca         1 IT4      -0.085000
      6 O1         -14.5840    -6.4000     0.6760 o          1 IT4      -0.813300
      7 O2         -14.2840    -4.3450    -0.1430 o          1 IT4      -0.813300
      8 C2         -12.3840    -5.6920     0.1790 ca         1 IT4      -0.138600
      9 BR1         -7.7880    -6.4230    -0.3410 br         1 IT4      -0.172100
     10 O3         -12.2930    -6.8750     2.2310 oh         1 IT4      -0.451100
     11 H1          -9.8230    -4.9920    -1.9690 ha         1 IT4       0.125000
     12 H2          -9.7390    -7.1780     1.7310 ha         1 IT4       0.120000
     13 H3         -12.2240    -4.6000    -1.6430 ha         1 IT4       0.147000
     14 H5         -11.6620    -7.3010     2.8210 ho         1 IT4       0.392000
     15 C1         -13.8920    -5.4570     0.2580 c          1 IT4       0.934200
@<TRIPOS>BOND
     1     1     2 ar  
     2     1     5 ar  
     3     1    11 1   
     4     2     3 ar  
     5     2     9 1   
     6     3     4 ar  
     7     3    12 1   
     8     4     8 ar  
     9     4    10 1   
    10     5     8 ar  
    11     5    13 1   
    12     6    15 1   
    13     7    15 1   
    14     8    15 1   
    15    10    14 1   
@<TRIPOS>SUBSTRUCTURE
     1 IT4         1 TEMP              0 ****  ****    0 ROOT
