@<TRIPOS>MOLECULE
IT5
   31    32     1     0     0
SMALL
bcc


@<TRIPOS>ATOM
      1 N11          1.4920    -1.9030    -2.5230 n1         1 IT5      -0.364800
      2 N22         -1.8670    -0.2370    -0.3390 n          1 IT5      -0.355800
      3 SAB         -3.5430     1.8140    -0.0550 s          1 IT5      -0.577400
      4 SAC         -3.4130    -0.5470     1.7550 sh         1 IT5      -0.297400
      5 CAD          1.3040    -1.1990    -1.6330 c1         1 IT5       0.208700
      6 CAE          4.8710     0.8100     1.1790 ca         1 IT5      -0.117000
      7 CAF          4.5370    -0.5250     0.9920 ca         1 IT5      -0.124500
      8 CAG          3.9710     1.7960     0.8080 ca         1 IT5      -0.124500
      9 CAH          3.3110    -0.8630     0.4420 ca         1 IT5      -0.115500
     10 CAI          2.7410     1.4570     0.2550 ca         1 IT5      -0.115500
     11 CAJ         -1.1950     0.4140    -1.4550 c6         1 IT5       0.070500
     12 CAK         -1.1570    -1.4370     0.0830 c6         1 IT5       0.070500
     13 CAL          0.1910     0.8710    -1.0190 c6         1 IT5      -0.090400
     14 CAM          0.2390    -1.0720     0.5690 c6         1 IT5      -0.090400
     15 CAN         -2.8480     0.3510     0.3390 cs         1 IT5       0.484000
     16 CAO          2.3970     0.1230     0.0700 ca         1 IT5      -0.086300
     17 CAQ          1.0460    -0.2990    -0.5000 c6         1 IT5       0.069400
     18 HSAC        -4.3570     0.3370     2.0830 hs         1 IT5       0.262800
     19 HAE          5.8270     1.0780     1.6090 ha         1 IT5       0.135000
     20 HAF          5.2310    -1.3060     1.2720 ha         1 IT5       0.136000
     21 HAG          4.2230     2.8400     0.9440 ha         1 IT5       0.136000
     22 HAH          3.0710    -1.9110     0.3000 ha         1 IT5       0.134000
     23 HAI          2.0650     2.2520    -0.0270 ha         1 IT5       0.134000
     24 HAJ         -1.1460    -0.2980    -2.2820 h1         1 IT5       0.082700
     25 HAJA        -1.7840     1.2640    -1.7840 h1         1 IT5       0.082700
     26 HAK         -1.6920    -1.9720     0.8640 h1         1 IT5       0.082700
     27 HAKA        -1.1100    -2.1170    -0.7710 h1         1 IT5       0.082700
     28 HAL          0.6880     1.3740    -1.8500 hc         1 IT5       0.071700
     29 HALA         0.0700     1.6010    -0.2160 hc         1 IT5       0.071700
     30 HAM          0.1710    -0.4380     1.4560 hc         1 IT5       0.071700
     31 HAMA         0.7640    -1.9820     0.8630 hc         1 IT5       0.071700
@<TRIPOS>BOND
     1     1     5 3   
     2     2    11 1   
     3     2    12 1   
     4     2    15 1   
     5     3    15 2   
     6     4    15 1   
     7     4    18 1   
     8     5    17 1   
     9     6     7 ar  
    10     6     8 ar  
    11     6    19 1   
    12     7     9 ar  
    13     7    20 1   
    14     8    10 ar  
    15     8    21 1   
    16     9    16 ar  
    17     9    22 1   
    18    10    16 ar  
    19    10    23 1   
    20    11    13 1   
    21    11    24 1   
    22    11    25 1   
    23    12    14 1   
    24    12    26 1   
    25    12    27 1   
    26    13    17 1   
    27    13    28 1   
    28    13    29 1   
    29    14    17 1   
    30    14    30 1   
    31    14    31 1   
    32    16    17 1   
@<TRIPOS>SUBSTRUCTURE
     1 IT5         1 TEMP              0 ****  ****    0 ROOT
