@<TRIPOS>MOLECULE
IT5
   31    32     1     0     0
SMALL
No Charge or Current Charge


@<TRIPOS>ATOM
      1 N11          1.5310    -1.8150    -2.6530 n1         1 IT5      -0.454000
      2 N22         -1.9240    -0.2140    -0.2800 n          1 IT5      -0.288800
      3 SAB         -3.8420     1.7030     0.0040 s          1 IT5      -0.577400
      4 SAC         -3.6830    -0.7000     1.7420 sh         1 IT5      -0.297400
      5 CAD          1.3510    -1.1460    -1.7160 c1         1 IT5       0.297900
      6 CAE          4.9890     0.8100     1.1580 ca         1 IT5      -0.099000
      7 CAF          4.5600    -0.5240     1.1640 ca         1 IT5      -0.106500
      8 CAG          4.1660     1.8010     0.6050 ca         1 IT5      -0.106500
      9 CAH          3.3080    -0.8660     0.6250 ca         1 IT5      -0.097500
     10 CAI          2.9130     1.4640     0.0640 ca         1 IT5      -0.097500
     11 CAJ         -1.2440     0.5160    -1.3800 c6         1 IT5       0.070500
     12 CAK         -1.1810    -1.4550     0.0790 c6         1 IT5       0.070500
     13 CAL          0.1910     0.9220    -0.9560 c6         1 IT5      -0.090400
     14 CAM          0.2620    -1.1200     0.5400 c6         1 IT5      -0.090400
     15 CAN         -3.0470     0.2780     0.3770 cs         1 IT5       0.417000
     16 CAO          2.4550     0.1210     0.0720 ca         1 IT5      -0.086300
     17 CAQ          1.0750    -0.2990    -0.5220 c6         1 IT5       0.069400
     18 HSAC        -4.6800     0.1830     1.9780 hs         1 IT5       0.262800
     19 HAE          5.9590     1.0750     1.5750 ha         1 IT5       0.117000
     20 HAF          5.1990    -1.2980     1.5850 ha         1 IT5       0.118000
     21 HAG          4.5000     2.8370     0.5930 ha         1 IT5       0.118000
     22 HAH          3.0130    -1.9120     0.6330 ha         1 IT5       0.116000
     23 HAI          2.3170     2.2670    -0.3580 ha         1 IT5       0.116000
     24 HAJ         -1.2120    -0.1230    -2.2740 h1         1 IT5       0.082700
     25 HAJA        -1.8030     1.4180    -1.6630 h1         1 IT5       0.082700
     26 HAK         -1.6810    -2.0300     0.8680 h1         1 IT5       0.082700
     27 HAKA        -1.1480    -2.1150    -0.8000 h1         1 IT5       0.082700
     28 HAL          0.6670     1.4700    -1.7810 hc         1 IT5       0.071700
     29 HALA         0.1050     1.6290    -0.1190 hc         1 IT5       0.071700
     30 HAM          0.2070    -0.5450     1.4750 hc         1 IT5       0.071700
     31 HAMA         0.7730    -2.0580     0.7930 hc         1 IT5       0.071700
@<TRIPOS>BOND
     1     1     5 3   
     2     2    11 1   
     3     2    12 1   
     4     2    15 1   
     5     3    15 2   
     6     4    15 1   
     7     4    18 1   
     8     5    17 1   
     9     6     7 ar  
    10     6     8 ar  
    11     6    19 1   
    12     7     9 ar  
    13     7    20 1   
    14     8    10 ar  
    15     8    21 1   
    16     9    16 ar  
    17     9    22 1   
    18    10    16 ar  
    19    10    23 1   
    20    11    13 1   
    21    11    24 1   
    22    11    25 1   
    23    12    14 1   
    24    12    26 1   
    25    12    27 1   
    26    13    17 1   
    27    13    28 1   
    28    13    29 1   
    29    14    17 1   
    30    14    30 1   
    31    14    31 1   
    32    16    17 1   
@<TRIPOS>SUBSTRUCTURE
     1 IT5         1 TEMP              0 ****  ****    0 ROOT
