@<TRIPOS>MOLECULE
IT6
   21    22     1     0     0
SMALL
abcg2


@<TRIPOS>ATOM
      1 C01        -22.4100    23.3440   -25.7300 c3         1 IT6       0.223100
      2 C03        -22.7110    25.6540   -24.9290 ca         1 IT6       0.456900
      3 C04        -22.2840    26.9940   -24.8010 ca         1 IT6      -0.102600
      4 C06        -21.3360    28.9000   -24.8130 cc         1 IT6       0.401700
      5 C09        -23.1180    27.8510   -24.0870 ca         1 IT6       0.131500
      6 C11        -24.5620    26.2440   -23.7080 ca         1 IT6       0.285000
      7 N02        -22.0050    24.7310   -25.5880 nu         1 IT6      -0.909100
      8 N05        -21.1690    27.6710   -25.2490 nd         1 IT6      -0.550100
      9 N07        -22.4980    29.0720   -24.1030 na         1 IT6      -0.279300
     10 N10        -24.2870    27.5160   -23.5120 nb         1 IT6      -0.208000
     11 N13        -23.8850    25.3080   -24.3550 nb         1 IT6      -0.283000
     12 CL12       -26.0770    25.6920   -22.9960 cl         1 IT6      -0.148000
     13 H012       -21.6460    22.8280   -26.3060 h1         1 IT6       0.048033
     14 H013       -22.5080    22.8620   -24.7560 h1         1 IT6       0.048033
     15 H011       -23.3650    23.2650   -26.2530 h1         1 IT6       0.048033
     16 H061       -20.6550    29.7210   -24.9750 h5         1 IT6       0.068800
     17 H082       -23.9600    30.1190   -23.0750 h1         1 IT6       0.061033
     18 H081       -22.2980    30.5920   -22.6690 h1         1 IT6       0.061033
     19 H083       -23.0170    31.0980   -24.2180 h1         1 IT6       0.061033
     20 H021       -21.1340    25.0250   -25.9990 hn         1 IT6       0.517000
     21 C08        -22.9680    30.3000   -23.4780 c3         1 IT6       0.067900
@<TRIPOS>BOND
     1     1     7 1   
     2     1    13 1   
     3     1    14 1   
     4     1    15 1   
     5     2     3 ar  
     6     2     7 1   
     7     2    11 ar  
     8     3     5 ar  
     9     3     8 1   
    10     4     8 2   
    11     4     9 1   
    12     4    16 1   
    13     5     9 1   
    14     5    10 ar  
    15     6    10 ar  
    16     6    11 ar  
    17     6    12 1   
    18     7    20 1   
    19     9    21 1   
    20    17    21 1   
    21    18    21 1   
    22    19    21 1   
@<TRIPOS>SUBSTRUCTURE
     1 IT6         1 TEMP              0 ****  ****    0 ROOT
