@<TRIPOS>MOLECULE
IT6
   21    22     1     0     0
SMALL
No Charge or Current Charge


@<TRIPOS>ATOM
      1 C01        -22.3470    23.3090   -25.7770 c3         1 IT6       0.223100
      2 C03        -22.7790    25.6740   -24.8610 ca         1 IT6       0.456900
      3 C04        -22.3630    27.0200   -24.7810 ca         1 IT6      -0.102600
      4 C06        -21.3510    28.9210   -24.9500 cc         1 IT6       0.401700
      5 C09        -23.1250    27.8910   -24.0430 ca         1 IT6       0.131500
      6 C11        -24.5690    26.2010   -23.5300 ca         1 IT6       0.285000
      7 N02        -22.0510    24.7420   -25.5930 nu         1 IT6      -0.909100
      8 N05        -21.2460    27.6410   -25.3600 nd         1 IT6      -0.550100
      9 N07        -22.4840    29.0900   -24.1520 na         1 IT6      -0.279300
     10 N10        -24.2440    27.5090   -23.4000 nb         1 IT6      -0.208000
     11 N13        -23.8940    25.2600   -24.2290 nb         1 IT6      -0.283000
     12 Cl12       -26.0240    25.6690   -22.7030 cl         1 IT6      -0.148000
     13 H012       -21.5840    22.8350   -26.4100 h1         1 IT6       0.048033
     14 H013       -22.3610    22.7910   -24.8080 h1         1 IT6       0.048033
     15 H011       -23.3250    23.1750   -26.2570 h1         1 IT6       0.048033
     16 H061       -20.6730    29.7330   -25.1860 h5         1 IT6       0.068800
     17 H082       -23.9770    30.5560   -23.8700 h1         1 IT6       0.061033
     18 H081       -23.0090    30.1710   -22.4150 h1         1 IT6       0.061033
     19 H083       -22.2980    31.1540   -23.7280 h1         1 IT6       0.061033
     20 H021       -21.2180    25.1280   -26.0450 hn         1 IT6       0.517000
     21 C08        -22.9710    30.3180   -23.5020 c3         1 IT6       0.067900
@<TRIPOS>BOND
     1     1     7 1   
     2     1    13 1   
     3     1    14 1   
     4     1    15 1   
     5     2     3 ar  
     6     2     7 1   
     7     2    11 ar  
     8     3     5 ar  
     9     3     8 1   
    10     4     8 2   
    11     4     9 1   
    12     4    16 1   
    13     5     9 1   
    14     5    10 ar  
    15     6    10 ar  
    16     6    11 ar  
    17     6    12 1   
    18     7    20 1   
    19     9    21 1   
    20    17    21 1   
    21    18    21 1   
    22    19    21 1   
@<TRIPOS>SUBSTRUCTURE
     1 IT6         1 TEMP              0 ****  ****    0 ROOT
