@<TRIPOS>MOLECULE
IT8
   30    29     1     0     0
SMALL
abcg2


@<TRIPOS>ATOM
      1 C4         -14.4160    -6.2860     0.3860 c          1 IT8       0.591100
      2 C5         -13.8890    -5.7420     2.8040 c3         1 IT8       0.199100
      3 C6         -12.5930    -6.3230     3.1540 c1         1 IT8      -0.119100
      4 C7         -11.5290    -6.8200     3.4110 c1         1 IT8      -0.023200
      5 C8         -12.3630    -5.8510    -1.0260 c3         1 IT8      -0.074700
      6 C9         -11.4230    -4.7820    -1.5810 c3         1 IT8      -0.090600
      7 C10        -11.5760    -6.9110    -0.2560 c3         1 IT8      -0.090600
      8 N1         -14.2780    -4.2750    -0.9070 ns         1 IT8      -0.512900
      9 N2         -14.5630    -6.4440     1.7160 ns         1 IT8      -0.506900
     10 C3         -13.4600    -5.2100    -0.1470 c3         1 IT8       0.055700
     11 C1         -13.5380    -2.2540     0.2780 c3         1 IT8      -0.175100
     12 O1         -15.0960    -2.2840    -1.5420 o          1 IT8      -0.603100
     13 O2         -15.0540    -6.9740    -0.4100 o          1 IT8      -0.595100
     14 BR1         -9.9350    -7.5700     3.7600 br         1 IT8      -0.009800
     15 H1         -13.7720    -4.6880     2.5580 h1         1 IT8       0.072200
     16 H2         -14.5520    -5.7810     3.6690 h1         1 IT8       0.072200
     17 H7         -12.8780    -6.3350    -1.8610 hc         1 IT8       0.072700
     18 H8         -11.9590    -4.0260    -2.1550 hc         1 IT8       0.039867
     19 H9         -10.8860    -4.2820    -0.7700 hc         1 IT8       0.039867
     20 H10        -10.6830    -5.2420    -2.2390 hc         1 IT8       0.039867
     21 H11        -12.2200    -7.6990     0.1380 hc         1 IT8       0.039867
     22 H12        -10.8410    -7.3780    -0.9130 hc         1 IT8       0.039867
     23 H13        -11.0430    -6.4620     0.5840 hc         1 IT8       0.039867
     24 H14        -14.8450    -4.6820    -1.6390 hn         1 IT8       0.331500
     25 H15        -15.1790    -7.2000     1.9860 hn         1 IT8       0.324500
     26 H16        -12.9840    -4.6710     0.6650 h1         1 IT8       0.064700
     27 H17        -13.6770    -1.1800     0.1910 hc         1 IT8       0.060033
     28 H18        -13.8580    -2.5760     1.2710 hc         1 IT8       0.060033
     29 H19        -12.4780    -2.4920     0.1780 hc         1 IT8       0.060033
     30 C2         -14.3600    -2.9310    -0.7920 c          1 IT8       0.600100
@<TRIPOS>BOND
     1     1     9 1   
     2     1    10 1   
     3     1    13 2   
     4     2     3 1   
     5     2     9 1   
     6     2    15 1   
     7     2    16 1   
     8     3     4 3   
     9     4    14 1   
    10     5     6 1   
    11     5     7 1   
    12     5    10 1   
    13     5    17 1   
    14     6    18 1   
    15     6    19 1   
    16     6    20 1   
    17     7    21 1   
    18     7    22 1   
    19     7    23 1   
    20     8    10 1   
    21     8    24 1   
    22     8    30 1   
    23     9    25 1   
    24    10    26 1   
    25    11    27 1   
    26    11    28 1   
    27    11    29 1   
    28    11    30 1   
    29    12    30 2   
@<TRIPOS>SUBSTRUCTURE
     1 IT8         1 TEMP              0 ****  ****    0 ROOT
