@<TRIPOS>MOLECULE
IT8
   30    29     1     0     0
SMALL
No Charge or Current Charge


@<TRIPOS>ATOM
      1 C4         -14.5450    -6.3280     0.3800 c          1 IT8       0.591100
      2 C5         -14.0500    -5.9330     2.8290 c3         1 IT8       0.199100
      3 C6         -12.6450    -6.1940     3.1570 c1         1 IT8      -0.119100
      4 C7         -11.4790    -6.3820     3.4150 c1         1 IT8      -0.023200
      5 C8         -12.4210    -5.8560    -1.0260 c3         1 IT8      -0.074700
      6 C9         -11.4630    -4.7970    -1.6290 c3         1 IT8      -0.090600
      7 C10        -11.6000    -6.9480    -0.2970 c3         1 IT8      -0.090600
      8 N1         -14.3090    -4.2130    -0.8740 ns         1 IT8      -0.512900
      9 N2         -14.4780    -6.7500     1.6910 ns         1 IT8      -0.506900
     10 C3         -13.5380    -5.2370    -0.1230 c3         1 IT8       0.055700
     11 C1         -13.3540    -2.2440     0.3390 c3         1 IT8      -0.175100
     12 O1         -14.7230    -2.1410    -1.6360 o          1 IT8      -0.603100
     13 O2         -15.3410    -6.8710    -0.3730 o          1 IT8      -0.595100
     14 Br1         -9.7470    -6.6600     3.7790 br         1 IT8      -0.009800
     15 H1         -14.1960    -4.8660     2.6130 h1         1 IT8       0.072200
     16 H2         -14.6700    -6.1850     3.7000 h1         1 IT8       0.072200
     17 H7         -12.9220    -6.3470    -1.8710 hc         1 IT8       0.072700
     18 H8         -12.0030    -4.0770    -2.2560 hc         1 IT8       0.039867
     19 H9         -10.9400    -4.2470    -0.8380 hc         1 IT8       0.039867
     20 H10        -10.7080    -5.2770    -2.2630 hc         1 IT8       0.039867
     21 H11        -12.2430    -7.7470     0.0910 hc         1 IT8       0.039867
     22 H12        -10.8800    -7.4110    -0.9830 hc         1 IT8       0.039867
     23 H13        -11.0370    -6.5180     0.5390 hc         1 IT8       0.039867
     24 H14        -14.9210    -4.5420    -1.6120 hn         1 IT8       0.331500
     25 H15        -15.0710    -7.5440     1.9040 hn         1 IT8       0.324500
     26 H16        -13.0540    -4.7760     0.7420 h1         1 IT8       0.064700
     27 H17        -13.3660    -1.1480     0.3290 hc         1 IT8       0.060033
     28 H18        -13.7310    -2.6390     1.2890 hc         1 IT8       0.060033
     29 H19        -12.3300    -2.6280     0.3070 hc         1 IT8       0.060033
     30 C2         -14.1630    -2.8450    -0.8120 c          1 IT8       0.600100
@<TRIPOS>BOND
     1     1     9 1   
     2     1    10 1   
     3     1    13 2   
     4     2     3 1   
     5     2     9 1   
     6     2    15 1   
     7     2    16 1   
     8     3     4 3   
     9     4    14 1   
    10     5     6 1   
    11     5     7 1   
    12     5    10 1   
    13     5    17 1   
    14     6    18 1   
    15     6    19 1   
    16     6    20 1   
    17     7    21 1   
    18     7    22 1   
    19     7    23 1   
    20     8    10 1   
    21     8    24 1   
    22     8    30 1   
    23     9    25 1   
    24    10    26 1   
    25    11    27 1   
    26    11    28 1   
    27    11    29 1   
    28    11    30 1   
    29    12    30 2   
@<TRIPOS>SUBSTRUCTURE
     1 IT8         1 TEMP              0 ****  ****    0 ROOT
