@<TRIPOS>MOLECULE
IT9
   25    25     1     0     0
SMALL
bcc


@<TRIPOS>ATOM
      1 C4          -0.6690     0.3560    -0.3880 c6         1 IT9      -0.127500
      2 C5           0.1080     1.3650     0.4610 c6         1 IT9      -0.061400
      3 C6           1.5680     1.4090     0.0430 c6         1 IT9      -0.058200
      4 C7          -2.1440     0.3250    -0.0860 c2         1 IT9      -0.095400
      5 C8          -3.0400     0.5050    -1.0540 c2         1 IT9      -0.211000
      6 C9          -2.5490     0.1120     1.3420 c3         1 IT9      -0.054900
      7 C1           2.1850     0.0480    -0.0430 c2         1 IT9      -0.046400
      8 C2           1.4290    -1.0570    -0.1590 ce         1 IT9      -0.263200
      9 C3          -0.0290    -1.0180    -0.2760 c          1 IT9       0.575300
     10 H           -0.5380     0.6430    -1.4410 hc         1 IT9       0.070700
     11 H6          -0.3400     2.3550     0.3610 hc         1 IT9       0.051700
     12 H5           0.0450     1.0910     1.5180 hc         1 IT9       0.051700
     13 H7           1.6700     1.8910    -0.9370 hc         1 IT9       0.055200
     14 H8           2.1460     2.0260     0.7350 hc         1 IT9       0.055200
     15 H9          -2.7410     0.6710    -2.0820 ha         1 IT9       0.113500
     16 H10         -4.1040     0.4910    -0.8530 ha         1 IT9       0.113500
     17 H12         -2.0890    -0.7850     1.7610 hc         1 IT9       0.041700
     18 H13         -2.2350     0.9480     1.9710 hc         1 IT9       0.041700
     19 H11         -3.6300     0.0150     1.4380 hc         1 IT9       0.041700
     20 H1           4.0430     0.3410     0.9620 hc         1 IT9       0.049367
     21 H2           4.0530    -1.0210    -0.1720 hc         1 IT9       0.049367
     22 H3           4.1000     0.6490    -0.7590 hc         1 IT9       0.049367
     23 H4           1.8930    -2.0370    -0.2040 ha         1 IT9       0.147000
     24 C            3.6740    -0.0140    -0.0030 c3         1 IT9      -0.066900
     25 O           -0.6860    -2.0410    -0.3380 o          1 IT9      -0.519100
@<TRIPOS>BOND
     1     1     2 1   
     2     1     4 1   
     3     1     9 1   
     4     1    10 1   
     5     2     3 1   
     6     2    11 1   
     7     2    12 1   
     8     3     7 1   
     9     3    13 1   
    10     3    14 1   
    11     4     5 2   
    12     4     6 1   
    13     5    15 1   
    14     5    16 1   
    15     6    17 1   
    16     6    18 1   
    17     6    19 1   
    18     7     8 2   
    19     7    24 1   
    20     8     9 1   
    21     8    23 1   
    22     9    25 2   
    23    20    24 1   
    24    21    24 1   
    25    22    24 1   
@<TRIPOS>SUBSTRUCTURE
     1 IT9         1 TEMP              0 ****  ****    0 ROOT
