@<TRIPOS>MOLECULE
IT9
   25    25     1     0     0
SMALL
No Charge or Current Charge


@<TRIPOS>ATOM
      1 C4          -0.7040     0.3380    -0.4530 c6         1 IT9      -0.127500
      2 C5           0.1120     1.4230     0.3040 c6         1 IT9      -0.061400
      3 C6           1.5950     1.4220    -0.1290 c6         1 IT9      -0.058200
      4 C7          -2.1860     0.3450    -0.0560 c2         1 IT9      -0.095400
      5 C8          -3.1370     0.6910    -0.9380 c2         1 IT9      -0.311000
      6 C9          -2.5080    -0.0580     1.3750 c3         1 IT9      -0.054900
      7 C1           2.2090     0.0320    -0.0270 c2         1 IT9      -0.046400
      8 C2           1.4450    -1.0770    -0.1450 ce         1 IT9      -0.313200
      9 C3          -0.0270    -1.0550    -0.3780 c          1 IT9       0.575300
     10 H           -0.6180     0.6100    -1.5140 hc         1 IT9       0.070700
     11 H6          -0.3270     2.4160     0.1320 hc         1 IT9       0.051700
     12 H5           0.0630     1.2430     1.3860 hc         1 IT9       0.051700
     13 H7           1.6860     1.7840    -1.1630 hc         1 IT9       0.055200
     14 H8           2.1520     2.1310     0.4980 hc         1 IT9       0.055200
     15 H9          -2.8980     0.9800    -1.9620 ha         1 IT9       0.163500
     16 H10         -4.1930     0.7000    -0.6670 ha         1 IT9       0.163500
     17 H12         -2.1180    -1.0550     1.6120 hc         1 IT9       0.041700
     18 H13         -2.0840     0.6480     2.0980 hc         1 IT9       0.041700
     19 H11         -3.5910    -0.0850     1.5500 hc         1 IT9       0.041700
     20 H1           3.9870     0.4860     1.1260 hc         1 IT9       0.049367
     21 H2           4.0950    -1.0230     0.2090 hc         1 IT9       0.049367
     22 H3           4.2290     0.5290    -0.6290 hc         1 IT9       0.049367
     23 H4           1.8870    -2.0690    -0.0880 ha         1 IT9       0.197000
     24 C            3.7100     0.0040     0.1810 c3         1 IT9      -0.066900
     25 O           -0.6570    -2.0950    -0.5240 o          1 IT9      -0.519100
@<TRIPOS>BOND
     1     1     2 1   
     2     1     4 1   
     3     1     9 1   
     4     1    10 1   
     5     2     3 1   
     6     2    11 1   
     7     2    12 1   
     8     3     7 1   
     9     3    13 1   
    10     3    14 1   
    11     4     5 2   
    12     4     6 1   
    13     5    15 1   
    14     5    16 1   
    15     6    17 1   
    16     6    18 1   
    17     6    19 1   
    18     7     8 2   
    19     7    24 1   
    20     8     9 1   
    21     8    23 1   
    22     9    25 2   
    23    20    24 1   
    24    21    24 1   
    25    22    24 1   
@<TRIPOS>SUBSTRUCTURE
     1 IT9         1 TEMP              0 ****  ****    0 ROOT
