@<TRIPOS>MOLECULE
ITA
   36    38     1     0     0
SMALL
abcg2


@<TRIPOS>ATOM
      1 C1           3.4740    -1.5100    -0.9210 ca         1 ITA      -0.036000
      2 C2           2.5740    -2.1770    -0.0610 ca         1 ITA      -0.097000
      3 C3           1.4010    -1.5800     0.3110 ca         1 ITA      -0.120000
      4 C4           1.0860    -0.2940    -0.1660 ca         1 ITA      -0.131000
      5 C5           1.9350     0.3810    -1.0030 ca         1 ITA      -0.074000
      6 C6           3.1550    -0.2090    -1.4030 ca         1 ITA       0.004000
      7 C7           4.1030     0.4080    -2.2600 ca         1 ITA      -0.066600
      8 C8           3.9790     1.7510    -2.8930 c          1 ITA       0.602600
      9 N9           5.0520     1.9780    -3.7080 n          1 ITA      -0.440200
     10 C10          5.4050     3.3120    -4.1530 c3         1 ITA      -0.051000
     11 C11          5.8530     4.2370    -2.9960 c          1 ITA       0.721000
     12 O12          5.7850     3.7830    -1.8450 o          1 ITA      -0.719500
     13 O13          6.2240     5.3650    -3.3660 o          1 ITA      -0.719500
     14 S14          6.2340     0.7830    -3.6810 sy         1 ITA       1.191300
     15 O15          7.4290     1.3180    -3.0640 o          1 ITA      -0.511500
     16 O16          6.3190     0.2130    -5.0100 o          1 ITA      -0.511500
     17 C17          5.2680    -0.2290    -2.5860 ca         1 ITA      -0.186500
     18 C18          5.5880    -1.5190    -2.1230 ca         1 ITA      -0.055600
     19 C19          6.8680    -2.1600    -2.5100 c          1 ITA       0.593700
     20 O20          6.9740    -3.3800    -2.0510 os         1 ITA      -0.392100
     21 C21          8.1640    -4.1270    -2.3260 c3         1 ITA       0.016600
     22 C22          8.0690    -5.5130    -1.6680 c          1 ITA       0.728000
     23 O23          7.0550    -5.7840    -1.0110 o          1 ITA      -0.721000
     24 O24          9.0680    -6.2250    -1.8820 o          1 ITA      -0.721000
     25 O25          7.6960    -1.5850    -3.1760 o          1 ITA      -0.519000
     26 C26          4.6810    -2.1330    -1.2970 ca         1 ITA      -0.040000
     27 O27          3.0620     2.5270    -2.7640 o          1 ITA      -0.517000
     28 H211         8.2910    -4.2330    -3.4060 h1         1 ITA       0.035700
     29 H212         9.0350    -3.5900    -1.9410 h1         1 ITA       0.035700
     30 H26          4.8890    -3.1240    -0.9120 ha         1 ITA       0.156000
     31 H2           2.8280    -3.1650     0.2990 ha         1 ITA       0.118000
     32 H3           0.7150    -2.0920     0.9710 ha         1 ITA       0.097000
     33 H4           0.1560     0.1700     0.1340 ha         1 ITA       0.098000
     34 H5           1.6720     1.3650    -1.3540 ha         1 ITA       0.148000
     35 H101         4.5380     3.7410    -4.6590 h1         1 ITA       0.042700
     36 H102         6.1870     3.2350    -4.9100 h1         1 ITA       0.042700
@<TRIPOS>BOND
     1     1     2 ar  
     2     1     6 ar  
     3     1    26 ar  
     4     2     3 ar  
     5     2    31 1   
     6     3     4 ar  
     7     3    32 1   
     8     4     5 ar  
     9     4    33 1   
    10     5     6 ar  
    11     5    34 1   
    12     6     7 ar  
    13     7     8 1   
    14     7    17 ar  
    15     8     9 1   
    16     8    27 2   
    17     9    10 1   
    18     9    14 1   
    19    10    11 1   
    20    10    35 1   
    21    10    36 1   
    22    11    12 1   
    23    11    13 1   
    24    14    15 2   
    25    14    16 2   
    26    14    17 1   
    27    17    18 ar  
    28    18    19 1   
    29    18    26 ar  
    30    19    20 1   
    31    19    25 2   
    32    20    21 1   
    33    21    22 1   
    34    21    28 1   
    35    21    29 1   
    36    22    23 1   
    37    22    24 1   
    38    26    30 1   
@<TRIPOS>SUBSTRUCTURE
     1 ITA         1 TEMP              0 ****  ****    0 ROOT
