@<TRIPOS>MOLECULE
ITA
   36    38     1     0     0
SMALL
No Charge or Current Charge


@<TRIPOS>ATOM
      1 C1           3.3200    -1.6670    -1.0560 ca         1 ITA      -0.036000
      2 C2           2.4040    -2.4620    -0.3390 ca         1 ITA      -0.097000
      3 C3           1.1780    -1.9290     0.0820 ca         1 ITA      -0.120000
      4 C4           0.8620    -0.5960    -0.2110 ca         1 ITA      -0.131000
      5 C5           1.7680     0.2070    -0.9260 ca         1 ITA      -0.074000
      6 C6           3.0100    -0.3160    -1.3610 ca         1 ITA       0.004000
      7 C7           3.9660     0.4440    -2.0860 ca         1 ITA      -0.066600
      8 C8           3.8750     1.9060    -2.5160 c          1 ITA       0.602600
      9 N9           5.0320     2.3190    -3.1710 n          1 ITA      -0.440200
     10 C10          5.2050     3.6770    -3.7800 c3         1 ITA      -0.051000
     11 C11          6.6620     4.1850    -3.9360 c          1 ITA       0.721000
     12 O12          7.1740     4.7670    -2.9900 o          1 ITA      -0.719500
     13 O13          7.2230     4.0170    -5.0090 o          1 ITA      -0.719500
     14 S14          6.1630     1.0520    -3.3610 sy         1 ITA       1.191300
     15 O15          7.3700     1.3610    -2.5820 o          1 ITA      -0.511500
     16 O16          6.2350     0.6990    -4.7850 o          1 ITA      -0.511500
     17 C17          5.1760    -0.1520    -2.4860 ca         1 ITA      -0.186500
     18 C18          5.5070    -1.4990    -2.1800 ca         1 ITA      -0.055600
     19 C19          6.8200    -2.1560    -2.5870 c          1 ITA       0.593700
     20 O20          7.0540    -3.3460    -1.9430 os         1 ITA      -0.392100
     21 C21          8.2740    -4.0770    -2.2450 c3         1 ITA       0.016600
     22 C22          8.4130    -5.4130    -1.4530 c          1 ITA       0.728000
     23 O23          7.5300    -5.7480    -0.6720 o          1 ITA      -0.721000
     24 O24          9.4180    -6.0850    -1.6490 o          1 ITA      -0.721000
     25 O25          7.5940    -1.6860    -3.4100 o          1 ITA      -0.519000
     26 C26          4.5450    -2.2400    -1.4570 ca         1 ITA      -0.040000
     27 O27          2.9230     2.6520    -2.3360 o          1 ITA      -0.517000
     28 H211         8.3120    -4.3250    -3.3130 h1         1 ITA       0.035700
     29 H212         9.1520    -3.4630    -2.0090 h1         1 ITA       0.035700
     30 H26          4.7390    -3.2790    -1.2010 ha         1 ITA       0.156000
     31 H2           2.6410    -3.4980    -0.1050 ha         1 ITA       0.118000
     32 H3           0.4750    -2.5470     0.6350 ha         1 ITA       0.097000
     33 H4          -0.0890    -0.1800     0.1160 ha         1 ITA       0.098000
     34 H5           1.4760     1.2300    -1.1260 ha         1 ITA       0.148000
     35 H101         4.6670     4.4120    -3.1680 h1         1 ITA       0.042700
     36 H102         4.7390     3.6730    -4.7730 h1         1 ITA       0.042700
@<TRIPOS>BOND
     1     1     2 ar  
     2     1     6 ar  
     3     1    26 ar  
     4     2     3 ar  
     5     2    31 1   
     6     3     4 ar  
     7     3    32 1   
     8     4     5 ar  
     9     4    33 1   
    10     5     6 ar  
    11     5    34 1   
    12     6     7 ar  
    13     7     8 1   
    14     7    17 ar  
    15     8     9 1   
    16     8    27 2   
    17     9    10 1   
    18     9    14 1   
    19    10    11 1   
    20    10    35 1   
    21    10    36 1   
    22    11    12 1   
    23    11    13 1   
    24    14    15 2   
    25    14    16 2   
    26    14    17 1   
    27    17    18 ar  
    28    18    19 1   
    29    18    26 ar  
    30    19    20 1   
    31    19    25 2   
    32    20    21 1   
    33    21    22 1   
    34    21    28 1   
    35    21    29 1   
    36    22    23 1   
    37    22    24 1   
    38    26    30 1   
@<TRIPOS>SUBSTRUCTURE
     1 ITA         1 TEMP              0 ****  ****    0 ROOT
