@<TRIPOS>MOLECULE
ITB
   30    32     1     0     0
SMALL
No Charge or Current Charge


@<TRIPOS>ATOM
      1 C1           3.0690    -0.3490    -1.3400 ca         1 ITB      -0.016000
      2 C10          4.0190     0.4130    -2.0720 ca         1 ITB      -0.080600
      3 C14          3.8630     1.8100    -2.6650 c          1 ITB       0.601600
      4 O19          2.8440     2.4870    -2.6520 o          1 ITB      -0.547000
      5 N15          5.0480     2.2550    -3.2480 n          1 ITB      -0.442200
      6 C20          5.1790     3.5550    -3.9770 c3         1 ITB      -0.044000
      7 C21          6.6060     4.1600    -4.0640 c          1 ITB       0.721000
      8 O23          7.2720     3.9350    -5.0650 o          1 ITB      -0.727000
      9 O22          6.9910     4.8670    -3.1440 o          1 ITB      -0.727000
     10 S16          6.2770     1.0640    -3.2210 sy         1 ITB       1.210300
     11 O18          6.4820     0.5840    -4.5950 o          1 ITB      -0.518500
     12 O17          7.3970     1.5350    -2.3950 o          1 ITB      -0.518500
     13 C9           5.3030    -0.1100    -2.2990 ca         1 ITB      -0.174500
     14 C8           5.7200    -1.3600    -1.7870 ca         1 ITB      -0.061600
     15 C11          7.1250    -1.9040    -1.9740 c          1 ITB       0.720600
     16 O13          7.6340    -1.8550    -3.0840 o          1 ITB      -0.709000
     17 O12          7.6700    -2.4270    -1.0110 o          1 ITB      -0.709000
     18 C7           4.7740    -2.1030    -1.0520 ca         1 ITB      -0.099000
     19 C6           3.4680    -1.6160    -0.8370 ca         1 ITB      -0.026000
     20 C5           2.5630    -2.4050    -0.1010 ca         1 ITB      -0.112000
     21 C4           1.2590    -1.9500     0.1430 ca         1 ITB      -0.128000
     22 C3           0.8560    -0.7000    -0.3460 ca         1 ITB      -0.158000
     23 C2           1.7500     0.0970    -1.0810 ca         1 ITB      -0.062000
     24 H201         4.5370     4.3010    -3.4920 h1         1 ITB       0.036200
     25 H202         4.8050     3.4170    -5.0000 h1         1 ITB       0.036200
     26 H7           5.0600    -3.0710    -0.6460 ha         1 ITB       0.123000
     27 H5           2.8690    -3.3750     0.2850 ha         1 ITB       0.099000
     28 H4           0.5650    -2.5640     0.7120 ha         1 ITB       0.083000
     29 H3          -0.1550    -0.3460    -0.1570 ha         1 ITB       0.088000
     30 H2           1.3910     1.0550    -1.4390 ha         1 ITB       0.142000
@<TRIPOS>BOND
     1     1     2 ar  
     2     1    19 ar  
     3     1    23 ar  
     4     2     3 1   
     5     2    13 ar  
     6     3     4 2   
     7     3     5 1   
     8     5     6 1   
     9     5    10 1   
    10     6     7 1   
    11     6    24 1   
    12     6    25 1   
    13     7     8 1   
    14     7     9 1   
    15    10    11 2   
    16    10    12 2   
    17    10    13 1   
    18    13    14 ar  
    19    14    15 1   
    20    14    18 ar  
    21    15    16 1   
    22    15    17 1   
    23    18    19 ar  
    24    18    26 1   
    25    19    20 ar  
    26    20    21 ar  
    27    20    27 1   
    28    21    22 ar  
    29    21    28 1   
    30    22    23 ar  
    31    22    29 1   
    32    23    30 1   
@<TRIPOS>SUBSTRUCTURE
     1 ITB         1 TEMP              0 ****  ****    0 ROOT
