@<TRIPOS>MOLECULE
ITB
   30    32     1     0     0
SMALL
abcg2


@<TRIPOS>ATOM
      1 C1           3.1670    -0.2150    -1.3680 ca         1 ITB      -0.016000
      2 C10          4.1330     0.3810    -2.2180 ca         1 ITB      -0.080600
      3 C14          4.0000     1.6730    -2.9420 c          1 ITB       0.601600
      4 O19          3.0490     2.4250    -2.9120 o          1 ITB      -0.547000
      5 N15          5.1070     1.8870    -3.7010 n          1 ITB      -0.442200
      6 C20          5.4280     3.1830    -4.2550 c3         1 ITB      -0.044000
      7 C21          5.8340     4.2260    -3.1860 c          1 ITB       0.721000
      8 O23          6.2430     5.3030    -3.6570 o          1 ITB      -0.727000
      9 O22          5.6930     3.9090    -1.9960 o          1 ITB      -0.727000
     10 S16          6.3350     0.7290    -3.5470 sy         1 ITB       1.210300
     11 O18          6.4860     0.1280    -4.8580 o          1 ITB      -0.518500
     12 O17          7.4670     1.3840    -2.9240 o          1 ITB      -0.518500
     13 C9           5.3370    -0.2380    -2.4360 ca         1 ITB      -0.174500
     14 C8           5.6900    -1.4710    -1.8700 ca         1 ITB      -0.061600
     15 C11          7.0390    -2.1070    -2.1440 c          1 ITB       0.720600
     16 O13          7.7820    -1.4290    -2.8780 o          1 ITB      -0.709000
     17 O12          7.2680    -3.2060    -1.6210 o          1 ITB      -0.709000
     18 C7           4.7620    -2.0580    -1.0500 ca         1 ITB      -0.099000
     19 C6           3.5100    -1.4650    -0.7790 ca         1 ITB      -0.026000
     20 C5           2.5880    -2.1060     0.0810 ca         1 ITB      -0.112000
     21 C4           1.3760    -1.5360     0.3490 ca         1 ITB      -0.128000
     22 C3           1.0360    -0.2990    -0.2350 ca         1 ITB      -0.158000
     23 C2           1.9030     0.3490    -1.0720 ca         1 ITB      -0.062000
     24 H201         4.5560     3.5450    -4.8020 h1         1 ITB       0.036200
     25 H202         6.2200     3.0660    -4.9970 h1         1 ITB       0.036200
     26 H7           5.0000    -3.0100    -0.5930 ha         1 ITB       0.123000
     27 H5           2.8600    -3.0570     0.5210 ha         1 ITB       0.099000
     28 H4           0.6760    -2.0300     1.0080 ha         1 ITB       0.083000
     29 H3           0.0730     0.1440    -0.0160 ha         1 ITB       0.088000
     30 H2           1.6220     1.2950    -1.5050 ha         1 ITB       0.142000
@<TRIPOS>BOND
     1     1     2 ar  
     2     1    19 ar  
     3     1    23 ar  
     4     2     3 1   
     5     2    13 ar  
     6     3     4 2   
     7     3     5 1   
     8     5     6 1   
     9     5    10 1   
    10     6     7 1   
    11     6    24 1   
    12     6    25 1   
    13     7     8 1   
    14     7     9 1   
    15    10    11 2   
    16    10    12 2   
    17    10    13 1   
    18    13    14 ar  
    19    14    15 1   
    20    14    18 ar  
    21    15    16 1   
    22    15    17 1   
    23    18    19 ar  
    24    18    26 1   
    25    19    20 ar  
    26    20    21 ar  
    27    20    27 1   
    28    21    22 ar  
    29    21    28 1   
    30    22    23 ar  
    31    22    29 1   
    32    23    30 1   
@<TRIPOS>SUBSTRUCTURE
     1 ITB         1 TEMP              0 ****  ****    0 ROOT
