@<TRIPOS>MOLECULE
ITC
   56    59     1     0     0
SMALL
bcc


@<TRIPOS>ATOM
      1 C1          -2.2170     0.8340    -1.1450 c          1 ITC       0.593300
      2 O1          -1.8210     1.6610    -1.9450 o          1 ITC      -0.511100
      3 C2          -3.1870     1.1480    -0.1120 ce         1 ITC      -0.408400
      4 C13         -3.8790     2.4690    -0.2020 c          1 ITC       0.681300
      5 O2          -4.4040     2.8570    -1.2260 o          1 ITC      -0.544100
      6 N2          -3.9550     3.1460     0.9750 nt         1 ITC      -0.682000
      7 C3          -3.5000     0.2470     0.8620 c2         1 ITC       0.198900
      8 O3          -4.3600     0.4710     1.8370 oh         1 ITC      -0.487100
      9 C4          -2.9430    -1.1490     0.9210 c6         1 ITC       0.249700
     10 N4          -3.9450    -2.1710     0.6310 n3         1 ITC      -0.738600
     11 C14         -4.3490    -2.9320     1.7940 c3         1 ITC       0.166100
     12 C4D         -5.0880    -1.8080    -0.1830 c3         1 ITC       0.166100
     13 C4A         -1.6400    -1.2820     0.1150 c6         1 ITC      -0.047700
     14 C5          -0.4730    -0.7120     0.9320 c6         1 ITC      -0.079400
     15 C5A          0.8640    -0.8380     0.2050 c6         1 ITC      -0.045700
     16 C6           2.0520    -0.3620     1.0620 c5         1 ITC       0.219100
     17 O6           1.8240     1.0220     1.4210 os         1 ITC      -0.400900
     18 C15          2.2190    -1.1550     2.3510 c3         1 ITC      -0.095100
     19 C6A          3.3450    -0.2970     0.2840 ca         1 ITC      -0.044300
     20 C7           4.1010    -1.2600    -0.3460 ca         1 ITC      -0.002600
     21 CL7          3.6300    -2.9250    -0.3730 cl         1 ITC      -0.090400
     22 C8           5.2740    -0.8680    -0.9910 ca         1 ITC      -0.051000
     23 C9           5.6900     0.4520    -1.0080 ca         1 ITC      -0.170000
     24 C10          4.9340     1.4380    -0.3720 ca         1 ITC       0.238100
     25 O10          5.3470     2.7030    -0.3980 oh         1 ITC      -0.474100
     26 C6B          3.7680     1.0210     0.2620 ca         1 ITC      -0.310600
     27 C5B          0.8020    -0.1080    -1.1400 c6         1 ITC      -0.179400
     28 C12         -0.3640    -0.5950    -1.9450 c          1 ITC       0.568100
     29 O12         -0.2720    -0.9720    -3.0880 o          1 ITC      -0.499100
     30 C4B         -1.7300    -0.6190    -1.2570 c6         1 ITC      -0.028200
     31 O4B         -2.6550    -1.2910    -2.0600 oh         1 ITC      -0.567800
     32 C11          2.7960     1.8270     0.9870 c          1 ITC       0.762200
     33 H2'1        -3.2150     3.0340     1.6530 hn         1 ITC       0.303000
     34 H2'2        -4.3820     4.0610     0.9640 hn         1 ITC       0.303000
     35 H3          -4.7210     1.3760     1.8020 ho         1 ITC       0.461000
     36 H4          -2.6500    -1.2890     1.9680 h1         1 ITC       0.064700
     37 H4A         -1.4640    -2.3510    -0.0350 hc         1 ITC       0.091700
     38 H4'1        -4.9680    -2.3660     2.5050 h1         1 ITC       0.036867
     39 H4'2        -4.9290    -3.7990     1.4750 h1         1 ITC       0.036867
     40 H4'3        -3.4750    -3.3040     2.3290 h1         1 ITC       0.036867
     41 H4D1        -4.7850    -1.2440    -1.0600 h1         1 ITC       0.036867
     42 H4D2        -5.5660    -2.7210    -0.5400 h1         1 ITC       0.036867
     43 H4D3        -5.8520    -1.2310     0.3560 h1         1 ITC       0.036867
     44 H51C        -0.6610     0.3330     1.1940 hc         1 ITC       0.057700
     45 H52C        -0.4380    -1.2650     1.8710 hc         1 ITC       0.057700
     46 H5A          1.0420    -1.9000     0.0100 hc         1 ITC       0.073700
     47 H5B1         0.6700     0.9680    -0.9830 hc         1 ITC       0.086700
     48 H5B2         1.7070    -0.2430    -1.7320 hc         1 ITC       0.086700
     49 H6'1         2.3520    -2.2130     2.1310 hc         1 ITC       0.058367
     50 H6'2         3.0960    -0.8100     2.8980 hc         1 ITC       0.058367
     51 H6'3         1.3500    -1.0480     2.9970 hc         1 ITC       0.058367
     52 H8           5.8770    -1.6110    -1.4950 ha         1 ITC       0.156000
     53 H9           6.6060     0.7190    -1.5180 ha         1 ITC       0.162000
     54 H10          4.7280     3.2780     0.0750 ho         1 ITC       0.466000
     55 H4B         -2.3410    -1.2450    -2.9750 ho         1 ITC       0.436000
     56 O11          2.8050     3.0150     1.1960 o          1 ITC      -0.587500
@<TRIPOS>BOND
     1     1     2 2   
     2     1     3 1   
     3     1    30 1   
     4     3     4 1   
     5     3     7 2   
     6     4     5 2   
     7     4     6 1   
     8     6    33 1   
     9     6    34 1   
    10     7     8 1   
    11     7     9 1   
    12     8    35 1   
    13     9    10 1   
    14     9    13 1   
    15     9    36 1   
    16    10    11 1   
    17    10    12 1   
    18    11    38 1   
    19    11    39 1   
    20    11    40 1   
    21    12    41 1   
    22    12    42 1   
    23    12    43 1   
    24    13    14 1   
    25    13    30 1   
    26    13    37 1   
    27    14    15 1   
    28    14    44 1   
    29    14    45 1   
    30    15    16 1   
    31    15    27 1   
    32    15    46 1   
    33    16    17 1   
    34    16    18 1   
    35    16    19 1   
    36    17    32 1   
    37    18    49 1   
    38    18    50 1   
    39    18    51 1   
    40    19    20 ar  
    41    19    26 ar  
    42    20    21 1   
    43    20    22 ar  
    44    22    23 ar  
    45    22    52 1   
    46    23    24 ar  
    47    23    53 1   
    48    24    25 1   
    49    24    26 ar  
    50    25    54 1   
    51    26    32 1   
    52    27    28 1   
    53    27    47 1   
    54    27    48 1   
    55    28    29 2   
    56    28    30 1   
    57    30    31 1   
    58    31    55 1   
    59    32    56 2   
@<TRIPOS>SUBSTRUCTURE
     1 ITC         1 TEMP              0 ****  ****    0 ROOT
