@<TRIPOS>MOLECULE
ITC
   56    59     1     0     0
SMALL
No Charge or Current Charge


@<TRIPOS>ATOM
      1 C1          -2.7970     0.3100    -1.4490 c          1 ITC       0.593300
      2 O1          -3.1480     0.6840    -2.5610 o          1 ITC      -0.511100
      3 C2          -3.2400     1.0100    -0.1970 ce         1 ITC      -0.408400
      4 C13         -3.5820     2.4640    -0.2800 c          1 ITC       0.614300
      5 O2          -3.8030     3.0620    -1.3150 o          1 ITC      -0.544100
      6 N2          -3.6000     3.1600     0.8770 nt         1 ITC      -0.615000
      7 C3          -3.3960     0.2550     0.9230 c2         1 ITC       0.198900
      8 O3          -3.9450     0.6830     2.0760 oh         1 ITC      -0.526100
      9 C4          -2.9560    -1.2190     0.9980 c6         1 ITC       0.249700
     10 N4          -4.0420    -2.2370     0.7430 n3         1 ITC      -0.738600
     11 C14         -4.7790    -2.5990     1.9780 c3         1 ITC       0.166100
     12 C4D         -4.9830    -1.9290    -0.3640 c3         1 ITC       0.166100
     13 C4A         -1.6520    -1.4120     0.1520 c6         1 ITC      -0.047700
     14 C5          -0.4620    -0.8140     0.9700 c6         1 ITC      -0.079400
     15 C5A          0.8840    -0.8270     0.2060 c6         1 ITC      -0.045700
     16 C6           2.1110    -0.4040     1.1020 c5         1 ITC       0.242300
     17 O6           1.8640     0.9330     1.6530 os         1 ITC      -0.424100
     18 C15          2.3410    -1.3650     2.2940 c3         1 ITC      -0.095100
     19 C6A          3.3840    -0.2230     0.2840 ca         1 ITC      -0.044300
     20 C7           4.1290    -1.1440    -0.4800 ca         1 ITC       0.089000
     21 Cl7          3.6620    -2.8360    -0.6230 cl         1 ITC      -0.182000
     22 C8           5.2860    -0.6860    -1.1450 ca         1 ITC      -0.033000
     23 C9           5.6840     0.6680    -1.0410 ca         1 ITC      -0.152000
     24 C10          4.9290     1.5680    -0.2710 ca         1 ITC       0.238100
     25 O10          5.3040     2.8710    -0.1610 oh         1 ITC      -0.513100
     26 C6B          3.7890     1.0890     0.3770 ca         1 ITC      -0.310600
     27 C5B          0.7110     0.0960    -1.0270 c6         1 ITC      -0.179400
     28 C12         -0.4340    -0.3300    -1.9470 c          1 ITC       0.568100
     29 O12         -0.2890    -0.2470    -3.1620 o          1 ITC      -0.499100
     30 C4B         -1.7690    -0.8660    -1.3300 c6         1 ITC      -0.005000
     31 O4B         -2.2050    -1.9840    -2.1730 oh         1 ITC      -0.630000
     32 C11          2.8390     1.8070     1.2340 c          1 ITC       0.686700
     33 H2'1        -3.2030     2.7570     1.7130 hn         1 ITC       0.303000
     34 H2'2        -3.7930     4.1510     0.8400 hn         1 ITC       0.303000
     35 H3          -4.5080     1.4570     1.8650 ho         1 ITC       0.500000
     36 H4          -2.6310    -1.3800     2.0370 h1         1 ITC       0.064700
     37 H4A         -1.4600    -2.4930     0.0980 hc         1 ITC       0.091700
     38 H4'1        -5.3450    -1.7420     2.3660 h1         1 ITC       0.036867
     39 H4'2        -5.4870    -3.4160     1.7830 h1         1 ITC       0.036867
     40 H4'3        -4.0880    -2.9390     2.7610 h1         1 ITC       0.036867
     41 H4D1        -4.4720    -1.7750    -1.3180 h1         1 ITC       0.036867
     42 H4D2        -5.6860    -2.7600    -0.5090 h1         1 ITC       0.036867
     43 H4D3        -5.5720    -1.0290    -0.1430 h1         1 ITC       0.036867
     44 H51C        -0.6930     0.2140     1.2870 hc         1 ITC       0.057700
     45 H52C        -0.3670    -1.3940     1.8970 hc         1 ITC       0.057700
     46 H5A          1.0630    -1.8510    -0.1510 hc         1 ITC       0.073700
     47 H5B1         0.4380     1.0920    -0.6540 hc         1 ITC       0.086700
     48 H5B2         1.6230     0.2050    -1.6280 hc         1 ITC       0.086700
     49 H6'1         2.3530    -2.4120     1.9710 hc         1 ITC       0.058367
     50 H6'2         3.3010    -1.1580     2.7800 hc         1 ITC       0.058367
     51 H6'3         1.5640    -1.2590     3.0590 hc         1 ITC       0.058367
     52 H8           5.8750    -1.3800    -1.7400 ha         1 ITC       0.138000
     53 H9           6.5760     1.0140    -1.5560 ha         1 ITC       0.144000
     54 H10          4.6490     3.3200     0.4180 ho         1 ITC       0.505000
     55 H4B         -2.2250    -1.6580    -3.1040 ho         1 ITC       0.475000
     56 O11          2.9050     2.9920     1.5230 o          1 ITC      -0.512000
@<TRIPOS>BOND
     1     1     2 2   
     2     1     3 1   
     3     1    30 1   
     4     3     4 1   
     5     3     7 2   
     6     4     5 2   
     7     4     6 1   
     8     6    33 1   
     9     6    34 1   
    10     7     8 1   
    11     7     9 1   
    12     8    35 1   
    13     9    10 1   
    14     9    13 1   
    15     9    36 1   
    16    10    11 1   
    17    10    12 1   
    18    11    38 1   
    19    11    39 1   
    20    11    40 1   
    21    12    41 1   
    22    12    42 1   
    23    12    43 1   
    24    13    14 1   
    25    13    30 1   
    26    13    37 1   
    27    14    15 1   
    28    14    44 1   
    29    14    45 1   
    30    15    16 1   
    31    15    27 1   
    32    15    46 1   
    33    16    17 1   
    34    16    18 1   
    35    16    19 1   
    36    17    32 1   
    37    18    49 1   
    38    18    50 1   
    39    18    51 1   
    40    19    20 ar  
    41    19    26 ar  
    42    20    21 1   
    43    20    22 ar  
    44    22    23 ar  
    45    22    52 1   
    46    23    24 ar  
    47    23    53 1   
    48    24    25 1   
    49    24    26 ar  
    50    25    54 1   
    51    26    32 1   
    52    27    28 1   
    53    27    47 1   
    54    27    48 1   
    55    28    29 2   
    56    28    30 1   
    57    30    31 1   
    58    31    55 1   
    59    32    56 2   
@<TRIPOS>SUBSTRUCTURE
     1 ITC         1 TEMP              0 ****  ****    0 ROOT
