@<TRIPOS>MOLECULE
ITE
   25    27     1     0     0
SMALL
No Charge or Current Charge


@<TRIPOS>ATOM
      1 N1          -2.6240    -1.8040    -0.0420 nc         1 ITE      -0.616100
      2 N3           4.3280    -0.2280     0.0490 nu         1 ITE      -0.910400
      3 C4           0.9030     0.4640     0.0160 ca         1 ITE      -0.109200
      4 C5           2.9790    -0.2270     0.0330 cc         1 ITE       0.686700
      5 C6           5.2170     0.9410    -0.0030 c3         1 ITE       0.217100
      6 C7           0.9570    -0.8990     0.0050 ca         1 ITE       0.153400
      7 C8          -0.2200    -1.6570    -0.0140 ca         1 ITE      -0.074000
      8 C10         -3.7640    -1.1070    -0.0490 cd         1 ITE       0.491800
      9 C1          -1.4710    -0.9980    -0.0220 ca         1 ITE       0.166400
     10 C2          -1.4990     0.4240    -0.0110 ca         1 ITE      -0.206600
     11 C3          -0.2990     1.1750     0.0090 ca         1 ITE      -0.035000
     12 N2           2.1920     0.9030     0.0340 na         1 ITE      -0.355600
     13 N4           2.2750    -1.3570     0.0160 nd         1 ITE      -0.663100
     14 C9          -2.8170     1.1040    -0.0200 c          1 ITE       0.579600
     15 O1          -2.9640     2.3170    -0.0110 o          1 ITE      -0.550000
     16 N5          -3.8670     0.2560    -0.0380 ns         1 ITE      -0.435400
     17 H6           5.0540     1.5880     0.8690 h1         1 ITE       0.040700
     18 H6A          6.2690     0.6230    -0.0050 h1         1 ITE       0.040700
     19 H8          -0.1680    -2.7410    -0.0220 ha         1 ITE       0.147000
     20 H10         -4.7310    -1.5950    -0.0630 h5         1 ITE       0.044800
     21 H3          -0.3070     2.2640     0.0180 ha         1 ITE       0.137000
     22 HN5         -4.7800     0.6860    -0.0450 hn         1 ITE       0.328500
     23 HN2          2.5280     1.8540     0.0480 hn         1 ITE       0.358000
     24 H81          4.7270    -1.1650     0.0100 hn         1 ITE       0.524000
     25 H9           5.0310     1.5270    -0.9130 h1         1 ITE       0.040700
@<TRIPOS>BOND
     1     1     8 2   
     2     1     9 1   
     3     2     4 1   
     4     2     5 1   
     5     2    24 1   
     6     3     6 ar  
     7     3    11 ar  
     8     3    12 1   
     9     4    12 1   
    10     4    13 2   
    11     5    17 1   
    12     5    18 1   
    13     5    25 1   
    14     6     7 ar  
    15     6    13 1   
    16     7     9 ar  
    17     7    19 1   
    18     8    16 1   
    19     8    20 1   
    20     9    10 ar  
    21    10    11 ar  
    22    10    14 1   
    23    11    21 1   
    24    12    23 1   
    25    14    15 2   
    26    14    16 1   
    27    16    22 1   
@<TRIPOS>SUBSTRUCTURE
     1 ITE         1 TEMP              0 ****  ****    0 ROOT
