@<TRIPOS>MOLECULE
ITE
   25    27     1     0     0
SMALL
abcg2


@<TRIPOS>ATOM
      1 N1          -2.6050    -1.7240    -0.0430 nc         1 ITE      -0.616100
      2 N3           4.3090    -0.2520     0.0560 nu         1 ITE      -0.910400
      3 C4           0.9060     0.4670     0.0210 ca         1 ITE      -0.109200
      4 C5           2.9770    -0.2830     0.0350 cc         1 ITE       0.686700
      5 C6           5.0870     0.9610    -0.0070 c3         1 ITE       0.217100
      6 C7           0.9550    -0.9520     0.0080 ca         1 ITE       0.153400
      7 C8          -0.2240    -1.6770    -0.0110 ca         1 ITE      -0.074000
      8 C10         -3.7100    -1.0800    -0.0520 cd         1 ITE       0.491800
      9 C1          -1.4380    -0.9840    -0.0200 ca         1 ITE       0.166400
     10 C2          -1.4570     0.4310    -0.0070 ca         1 ITE      -0.206600
     11 C3          -0.2670     1.1730     0.0150 ca         1 ITE      -0.035000
     12 N2           2.2260     0.8550     0.0400 na         1 ITE      -0.355600
     13 N4           2.2480    -1.3850     0.0180 nd         1 ITE      -0.663100
     14 C9          -2.7320     1.1250    -0.0160 c          1 ITE       0.579600
     15 O1          -2.8840     2.3370    -0.0050 o          1 ITE      -0.550000
     16 N5          -3.8150     0.2740    -0.0390 ns         1 ITE      -0.435400
     17 H6           4.8880     1.6150     0.8440 h1         1 ITE       0.040700
     18 H6A          6.1390     0.6940     0.0210 h1         1 ITE       0.040700
     19 H8          -0.2230    -2.7590    -0.0230 ha         1 ITE       0.147000
     20 H10         -4.6520    -1.6150    -0.0710 h5         1 ITE       0.044800
     21 H3          -0.2890     2.2540     0.0250 ha         1 ITE       0.137000
     22 HN5         -4.7390     0.6860    -0.0510 hn         1 ITE       0.328500
     23 HN2          2.5660     1.8030     0.0430 hn         1 ITE       0.358000
     24 H81          4.7790    -1.1390    -0.0060 hn         1 ITE       0.524000
     25 H9           4.9060     1.5220    -0.9270 h1         1 ITE       0.040700
@<TRIPOS>BOND
     1     1     8 2   
     2     1     9 1   
     3     2     4 1   
     4     2     5 1   
     5     2    24 1   
     6     3     6 ar  
     7     3    11 ar  
     8     3    12 1   
     9     4    12 1   
    10     4    13 2   
    11     5    17 1   
    12     5    18 1   
    13     5    25 1   
    14     6     7 ar  
    15     6    13 1   
    16     7     9 ar  
    17     7    19 1   
    18     8    16 1   
    19     8    20 1   
    20     9    10 ar  
    21    10    11 ar  
    22    10    14 1   
    23    11    21 1   
    24    12    23 1   
    25    14    15 2   
    26    14    16 1   
    27    16    22 1   
@<TRIPOS>SUBSTRUCTURE
     1 ITE         1 TEMP              0 ****  ****    0 ROOT
