@<TRIPOS>MOLECULE
ITH
   40    41     1     0     0
SMALL
No Charge or Current Charge


@<TRIPOS>ATOM
      1 C1         -13.3420   -23.7290    -0.8430 c3         1 ITH      -0.150600
      2 C2         -13.8080   -25.0970    -0.2910 c3         1 ITH       0.102800
      3 C3         -14.9780   -24.9360     0.7380 c3         1 ITH       0.102800
      4 C4         -15.4430   -26.3040     1.2900 c3         1 ITH      -0.150600
      5 N1         -14.6560   -23.9210     1.8590 nx         1 ITH      -0.657000
      6 C5         -13.4440   -24.3040     2.7740 c6         1 ITH      -0.016150
      7 C6         -13.7570   -25.2080     3.9830 c          1 ITH       0.560000
      8 O1         -12.9170   -25.9410     4.4760 o          1 ITH      -0.385250
      9 N2         -15.0290   -25.1400     4.4860 ns         1 ITH      -0.475500
     10 C7         -16.1050   -24.4280     4.0220 c          1 ITH       0.560000
     11 O2         -17.1900   -24.4900     4.5720 o          1 ITH      -0.385250
     12 C8         -15.8740   -23.5520     2.7700 c6         1 ITH      -0.016150
     13 N3         -14.1300   -26.1110    -1.4130 nx         1 ITH      -0.657000
     14 C9         -12.9120   -26.4810    -2.3240 c6         1 ITH      -0.016150
     15 C10        -12.6800   -25.6050    -3.5750 c          1 ITH       0.560000
     16 O3         -11.5950   -25.5430    -4.1250 o          1 ITH      -0.385250
     17 N4         -13.7560   -24.8930    -4.0400 ns         1 ITH      -0.475500
     18 C11        -15.0290   -24.8240    -3.5370 c          1 ITH       0.560000
     19 O4         -15.8680   -24.0920    -4.0290 o          1 ITH      -0.385250
     20 C12        -15.3410   -25.7290    -2.3270 c6         1 ITH      -0.016150
     21 H1         -12.9600   -23.0860    -0.0420 hc         1 ITH       0.096200
     22 H2         -12.5160   -23.8450    -1.5510 hc         1 ITH       0.096200
     23 H3         -14.1610   -23.2020    -1.3470 hc         1 ITH       0.096200
     24 H4         -12.9620   -25.5160     0.2630 hx         1 ITH       0.113700
     25 H5         -15.8230   -24.5170     0.1830 hx         1 ITH       0.113700
     26 H7         -16.2700   -26.1880     1.9970 hc         1 ITH       0.096200
     27 H8         -15.8250   -26.9460     0.4890 hc         1 ITH       0.096200
     28 H6         -14.6250   -26.8310     1.7930 hc         1 ITH       0.096200
     29 H19        -14.3990   -23.0330     1.3590 hn         1 ITH       0.512500
     30 H10        -12.6690   -24.7840     2.1700 hx         1 ITH       0.138825
     31 H9         -13.0180   -23.3800     3.1780 hx         1 ITH       0.138825
     32 H11        -15.2080   -25.7170     5.2950 hn         1 ITH       0.393000
     33 H12        -15.7320   -22.5280     3.1300 hx         1 ITH       0.138825
     34 H13        -16.7850   -23.5630     2.1650 hx         1 ITH       0.138825
     35 H20        -14.3870   -27.0000    -0.9130 hn         1 ITH       0.512500
     36 H14        -13.0530   -27.5050    -2.6830 hx         1 ITH       0.138825
     37 H15        -12.0000   -26.4700    -1.7180 hx         1 ITH       0.138825
     38 H16        -13.5770   -24.3150    -4.8480 hn         1 ITH       0.393000
     39 H18        -16.1160   -25.2490    -1.7240 hx         1 ITH       0.138825
     40 H17        -15.7670   -26.6530    -2.7320 hx         1 ITH       0.138825
@<TRIPOS>BOND
     1     1     2 1   
     2     1    21 1   
     3     1    22 1   
     4     1    23 1   
     5     2     3 1   
     6     2    13 1   
     7     2    24 1   
     8     3     4 1   
     9     3     5 1   
    10     3    25 1   
    11     4    26 1   
    12     4    27 1   
    13     4    28 1   
    14     5     6 1   
    15     5    12 1   
    16     5    29 1   
    17     6     7 1   
    18     6    30 1   
    19     6    31 1   
    20     7     8 2   
    21     7     9 1   
    22     9    10 1   
    23     9    32 1   
    24    10    11 2   
    25    10    12 1   
    26    12    33 1   
    27    12    34 1   
    28    13    14 1   
    29    13    20 1   
    30    13    35 1   
    31    14    15 1   
    32    14    36 1   
    33    14    37 1   
    34    15    16 2   
    35    15    17 1   
    36    17    18 1   
    37    17    38 1   
    38    18    19 2   
    39    18    20 1   
    40    20    39 1   
    41    20    40 1   
@<TRIPOS>SUBSTRUCTURE
     1 ITH         1 TEMP              0 ****  ****    0 ROOT
