@<TRIPOS>MOLECULE
ITH
   40    41     1     0     0
SMALL
abcg2


@<TRIPOS>ATOM
      1 C1         -13.3280   -23.7960    -0.7760 c3         1 ITH      -0.150600
      2 C2         -13.8100   -25.1440    -0.2720 c3         1 ITH       0.102800
      3 C3         -14.9820   -25.0800     0.7440 c3         1 ITH       0.102800
      4 C4         -15.2980   -26.4150     1.3890 c3         1 ITH      -0.150600
      5 N1         -14.6890   -24.0020     1.7740 nx         1 ITH      -0.657000
      6 C5         -13.4910   -24.2050     2.6390 c6         1 ITH      -0.016150
      7 C6         -13.7230   -25.0680     3.8570 c          1 ITH       0.560000
      8 O1         -12.8030   -25.6220     4.3940 o          1 ITH      -0.385250
      9 N2         -15.0040   -25.1280     4.3400 ns         1 ITH      -0.475500
     10 C7         -16.0990   -24.4800     3.8280 c          1 ITH       0.560000
     11 O2         -17.1820   -24.5310     4.3460 o          1 ITH      -0.385250
     12 C8         -15.8760   -23.6290     2.6020 c6         1 ITH      -0.016150
     13 N3         -14.2200   -26.0650    -1.4130 nx         1 ITH      -0.657000
     14 C9         -13.0740   -26.5180    -2.2660 c6         1 ITH      -0.016150
     15 C10        -12.7210   -25.6100    -3.4190 c          1 ITH       0.560000
     16 O3         -11.6450   -25.6950    -3.9480 o          1 ITH      -0.385250
     17 N4         -13.6860   -24.7360    -3.8480 ns         1 ITH      -0.475500
     18 C11        -14.9630   -24.6330    -3.3600 c          1 ITH       0.560000
     19 O4         -15.7670   -23.8590    -3.8050 o          1 ITH      -0.385250
     20 C12        -15.3510   -25.6090    -2.2750 c6         1 ITH      -0.016150
     21 H1         -12.8380   -23.2450     0.0260 hc         1 ITH       0.096200
     22 H2         -12.5450   -23.8970    -1.5230 hc         1 ITH       0.096200
     23 H3         -14.1300   -23.1710    -1.1710 hc         1 ITH       0.096200
     24 H4         -12.9760   -25.6810     0.1850 hx         1 ITH       0.113700
     25 H5         -15.8720   -24.6890     0.2490 hx         1 ITH       0.113700
     26 H7         -16.1420   -26.3540     2.0710 hc         1 ITH       0.096200
     27 H8         -15.6290   -27.1270     0.6340 hc         1 ITH       0.096200
     28 H6         -14.4400   -26.8550     1.8940 hc         1 ITH       0.096200
     29 H19        -14.5030   -23.1560     1.2300 hn         1 ITH       0.512500
     30 H10        -12.6730   -24.6280     2.0620 hx         1 ITH       0.138825
     31 H9         -13.1780   -23.2150     2.9810 hx         1 ITH       0.138825
     32 H11        -15.1520   -25.6840     5.1780 hn         1 ITH       0.393000
     33 H12        -15.7150   -22.5990     2.9320 hx         1 ITH       0.138825
     34 H13        -16.7650   -23.6460     1.9760 hx         1 ITH       0.138825
     35 H20        -14.5380   -26.9280    -0.9670 hn         1 ITH       0.512500
     36 H14        -13.3640   -27.4880    -2.6780 hx         1 ITH       0.138825
     37 H15        -12.2000   -26.6640    -1.6340 hx         1 ITH       0.138825
     38 H16        -13.4380   -24.1220    -4.6190 hn         1 ITH       0.393000
     39 H18        -16.1430   -25.1770    -1.6710 hx         1 ITH       0.138825
     40 H17        -15.7570   -26.5030    -2.7550 hx         1 ITH       0.138825
@<TRIPOS>BOND
     1     1     2 1   
     2     1    21 1   
     3     1    22 1   
     4     1    23 1   
     5     2     3 1   
     6     2    13 1   
     7     2    24 1   
     8     3     4 1   
     9     3     5 1   
    10     3    25 1   
    11     4    26 1   
    12     4    27 1   
    13     4    28 1   
    14     5     6 1   
    15     5    12 1   
    16     5    29 1   
    17     6     7 1   
    18     6    30 1   
    19     6    31 1   
    20     7     8 2   
    21     7     9 1   
    22     9    10 1   
    23     9    32 1   
    24    10    11 2   
    25    10    12 1   
    26    12    33 1   
    27    12    34 1   
    28    13    14 1   
    29    13    20 1   
    30    13    35 1   
    31    14    15 1   
    32    14    36 1   
    33    14    37 1   
    34    15    16 2   
    35    15    17 1   
    36    17    18 1   
    37    17    38 1   
    38    18    19 2   
    39    18    20 1   
    40    20    39 1   
    41    20    40 1   
@<TRIPOS>SUBSTRUCTURE
     1 ITH         1 TEMP              0 ****  ****    0 ROOT
