@<TRIPOS>MOLECULE
ITI
   72    78     1     0     0
SMALL
No Charge or Current Charge


@<TRIPOS>ATOM
      1 C4          -1.4690    -0.2770     3.4960 ca         1 ITI      -0.092000
      2 C5          -1.5890    -1.5300     2.8780 ca         1 ITI      -0.109000
      3 C6          -5.3180     4.3030    -1.7530 ca         1 ITI      -0.090500
      4 C7          -3.6670     5.0040    -0.1100 ca         1 ITI      -0.090500
      5 C8           4.3530     2.0020    -0.2120 ca         1 ITI      -0.129000
      6 C10         -2.2610     0.7980     3.0650 ca         1 ITI      -0.166000
      7 C13          0.8110    -4.5730     1.0040 ca         1 ITI      -0.288000
      8 C15          2.1660    -4.2280     0.8910 ca         1 ITI       0.150900
      9 C17         -4.8120     4.2520    -0.4390 ca         1 ITI      -0.074300
     10 C20         -3.1870     0.6310     2.0200 ca         1 ITI      -0.026000
     11 C21         -0.1430    -3.5570     0.8210 ca         1 ITI       0.260500
     12 C22         -2.6570    -3.0340     1.1850 cc         1 ITI       0.379500
     13 C24          1.5600    -2.0790     0.3900 ca         1 ITI       0.391900
     14 C26         -1.7520    -5.9980    -0.4710 cc         1 ITI      -0.115000
     15 C28         -4.8850     1.9750     0.6290 c          1 ITI       0.604100
     16 C1          -3.5460     5.8470    -2.3910 ca         1 ITI      -0.104000
     17 C2          -4.6870     5.0980    -2.7260 ca         1 ITI      -0.109500
     18 C3          -3.0360     5.7990    -1.0830 ca         1 ITI      -0.109500
     19 C9           5.3730    -0.0180    -1.0730 ca         1 ITI      -0.129000
     20 C11          3.1760     1.2850     0.0770 ca         1 ITI      -0.114000
     21 C12          4.1970    -0.7360    -0.7820 ca         1 ITI      -0.114000
     22 C14         -3.3050    -0.6360     1.4050 ca         1 ITI      -0.098000
     23 C16         -2.4880    -1.7150     1.8060 ca         1 ITI      -0.082500
     24 C18          5.4660     1.3590    -0.7840 ca         1 ITI       0.259000
     25 C19          3.0920    -0.0920    -0.1930 ca         1 ITI       0.283000
     26 C23         -1.5840    -3.8470     0.8340 cd         1 ITI      -0.266500
     27 C25         -3.5540    -4.7260     0.3480 cd         1 ITI       0.442900
     28 C27         -2.8800    -6.6730    -0.9450 cd         1 ITI      -0.250000
     29 C29          7.5840     1.6690    -2.1590 c6         1 ITI       0.154300
     30 C30          7.2930     2.9240    -0.0020 c6         1 ITI       0.154300
     31 C31          8.4850     2.8400    -2.6560 c6         1 ITI       0.149600
     32 C32          8.2080     4.0410    -0.5910 c6         1 ITI       0.149600
     33 C33         -5.4920     3.3840     0.6140 c3         1 ITI      -0.114100
     34 N34          2.5460    -2.9730     0.5900 nb         1 ITI      -0.232000
     35 N35          0.2410    -2.3090     0.4850 nb         1 ITI      -0.235000
     36 N36         -3.8900    -3.5590     0.8630 nc         1 ITI      -0.634000
     37 N37         -2.2290    -4.9290     0.2610 na         1 ITI      -0.010500
     38 N38          6.6420     2.0970    -1.0710 nh         1 ITI      -0.777400
     39 N39          1.8970    -0.7620     0.1000 nu         1 ITI      -0.926900
     40 N40         -3.9650     1.7630     1.6500 ns         1 ITI      -0.151000
     41 O41         -5.1910     1.1370    -0.2110 o          1 ITI      -0.558100
     42 O42          9.1460     3.4880    -1.5440 os         1 ITI      -0.447000
     43 S43         -4.4620    -5.9310    -0.5180 ss         1 ITI       0.053600
     44 H4          -0.7660    -0.1410     4.3150 ha         1 ITI       0.112000
     45 H5          -0.9840    -2.3610     3.2350 ha         1 ITI       0.116000
     46 H7          -3.2630     4.9740     0.9000 ha         1 ITI       0.110500
     47 H8           4.3910     3.0670    -0.0000 ha         1 ITI       0.115500
     48 H10         -2.1580     1.7650     3.5530 ha         1 ITI       0.105000
     49 H13          0.5160    -5.5870     1.2540 ha         1 ITI       0.134000
     50 H15          2.9560    -4.9620     1.0430 h4         1 ITI       0.022100
     51 H26         -0.6970    -6.1970    -0.6160 h4         1 ITI       0.171000
     52 H1          -3.0580     6.4620    -3.1440 ha         1 ITI       0.112000
     53 H2          -5.0820     5.1330    -3.7390 ha         1 ITI       0.112500
     54 H3          -2.1530     6.3780    -0.8220 ha         1 ITI       0.112500
     55 H9           6.2120    -0.5440    -1.5180 ha         1 ITI       0.115500
     56 H11          2.3300     1.8050     0.5180 ha         1 ITI       0.126000
     57 H12          4.1510    -1.7890    -1.0370 ha         1 ITI       0.126000
     58 H14         -4.0210    -0.8050     0.6070 ha         1 ITI       0.163000
     59 H27         -2.8800    -7.5670    -1.5600 h4         1 ITI       0.167000
     60 H29          7.0190     1.2810    -3.0200 h1         1 ITI       0.046450
     61 H29A         8.2300     0.8560    -1.7970 h1         1 ITI       0.046450
     62 H30          7.9020     2.2770     0.6470 h1         1 ITI       0.046450
     63 H30A         6.5390     3.4020     0.6400 h1         1 ITI       0.046450
     64 H31          9.2440     2.4560    -3.3520 h1         1 ITI       0.052200
     65 H31A         7.8740     3.5790    -3.1940 h1         1 ITI       0.052200
     66 H32          7.5920     4.8020    -1.0900 h1         1 ITI       0.052200
     67 H32A         8.7650     4.5320     0.2190 h1         1 ITI       0.052200
     68 H33         -5.3640     3.8530     1.5980 hc         1 ITI       0.063200
     69 H33A        -6.5620     3.3030     0.3900 hc         1 ITI       0.063200
     70 HN39         1.0950    -0.1390     0.2010 hn         1 ITI       0.514000
     71 HN40        -3.8160     2.5690     2.2430 hn         1 ITI       0.145000
     72 H6          -6.1980     3.7240    -2.0230 ha         1 ITI       0.110500
@<TRIPOS>BOND
     1     1     2 ar  
     2     1     6 ar  
     3     1    44 1   
     4     2    23 ar  
     5     2    45 1   
     6     3     9 ar  
     7     3    17 ar  
     8     3    72 1   
     9     4     9 ar  
    10     4    18 ar  
    11     4    46 1   
    12     5    20 ar  
    13     5    24 ar  
    14     5    47 1   
    15     6    10 ar  
    16     6    48 1   
    17     7     8 ar  
    18     7    11 ar  
    19     7    49 1   
    20     8    34 ar  
    21     8    50 1   
    22     9    33 1   
    23    10    22 ar  
    24    10    40 1   
    25    11    26 1   
    26    11    35 ar  
    27    12    23 1   
    28    12    26 2   
    29    12    36 1   
    30    13    34 ar  
    31    13    35 ar  
    32    13    39 1   
    33    14    28 2   
    34    14    37 1   
    35    14    51 1   
    36    15    33 1   
    37    15    40 1   
    38    15    41 2   
    39    16    17 ar  
    40    16    18 ar  
    41    16    52 1   
    42    17    53 1   
    43    18    54 1   
    44    19    21 ar  
    45    19    24 ar  
    46    19    55 1   
    47    20    25 ar  
    48    20    56 1   
    49    21    25 ar  
    50    21    57 1   
    51    22    23 ar  
    52    22    58 1   
    53    24    38 1   
    54    25    39 1   
    55    26    37 1   
    56    27    36 2   
    57    27    37 1   
    58    27    43 1   
    59    28    43 1   
    60    28    59 1   
    61    29    31 1   
    62    29    38 1   
    63    29    60 1   
    64    29    61 1   
    65    30    32 1   
    66    30    38 1   
    67    30    62 1   
    68    30    63 1   
    69    31    42 1   
    70    31    64 1   
    71    31    65 1   
    72    32    42 1   
    73    32    66 1   
    74    32    67 1   
    75    33    68 1   
    76    33    69 1   
    77    39    70 1   
    78    40    71 1   
@<TRIPOS>SUBSTRUCTURE
     1 ITI         1 TEMP              0 ****  ****    0 ROOT
