@<TRIPOS>MOLECULE
ITI
   72    78     1     0     0
SMALL
bcc


@<TRIPOS>ATOM
      1 C4          -0.8860     0.4560     2.9300 ca         1 ITI      -0.110000
      2 C5          -1.0240    -0.7770     2.3140 ca         1 ITI      -0.127000
      3 C6          -7.5810     3.6730    -0.4920 ca         1 ITI      -0.108500
      4 C7          -5.7430     4.9110    -1.4030 ca         1 ITI      -0.108500
      5 C8           5.2540     1.8060    -0.0710 ca         1 ITI      -0.147000
      6 C10         -1.7710     1.4840     2.6570 ca         1 ITI      -0.184000
      7 C13          0.9490    -4.2260     0.3750 ca         1 ITI      -0.436600
      8 C15          2.3100    -4.0160     0.2610 ca         1 ITI       0.479200
      9 C17         -6.2790     4.1480    -0.3690 ca         1 ITI      -0.074300
     10 C20         -2.8220     1.2890     1.7580 ca         1 ITI       0.066600
     11 C21          0.1400    -3.1020     0.1970 ca         1 ITI       0.588800
     12 C22         -2.2600    -2.2740     0.7490 cc         1 ITI       0.444800
     13 C24          1.9920    -1.8170    -0.1030 ca         1 ITI       0.917900
     14 C26         -1.8420    -5.4480    -0.8240 cc         1 ITI      -0.082300
     15 C28         -4.7520     2.4870     0.7290 c          1 ITI       0.671100
     16 C1          -7.7930     4.7210    -2.6480 ca         1 ITI      -0.122000
     17 C2          -8.3350     3.9580    -1.6220 ca         1 ITI      -0.127500
     18 C3          -6.4930     5.1980    -2.5350 ca         1 ITI      -0.127500
     19 C9           6.1280    -0.2650    -0.8660 ca         1 ITI      -0.147000
     20 C11          3.9970     1.2440     0.0060 ca         1 ITI      -0.132000
     21 C12          4.8580    -0.8290    -0.8150 ca         1 ITI      -0.132000
     22 C14         -2.9650     0.0490     1.1380 ca         1 ITI      -0.116000
     23 C16         -2.0610    -0.9790     1.4080 ca         1 ITI      -0.082500
     24 C18          6.3600     1.0610    -0.5000 ca         1 ITI       0.120600
     25 C19          3.7730    -0.0860    -0.3630 ca         1 ITI       0.144600
     26 C23         -1.3110    -3.1700     0.2820 cd         1 ITI      -0.281100
     27 C25         -3.3560    -3.9270     0.0160 cd         1 ITI       0.442900
     28 C27         -2.9990    -6.0700    -1.0980 cd         1 ITI      -0.123100
     29 C29          8.6750     0.9310    -1.2420 c6         1 ITI       0.154300
     30 C30          8.1080     2.2950     0.6450 c6         1 ITI       0.154300
     31 C31          9.8580     1.8500    -1.4920 c6         1 ITI       0.126400
     32 C32          9.3090     3.1660     0.3360 c6         1 ITI       0.126400
     33 C33         -5.4570     3.8300     0.8440 c3         1 ITI      -0.114100
     34 N34          2.8480    -2.8300     0.0220 nb         1 ITI      -0.758000
     35 N35          0.6610    -1.9100    -0.0510 nb         1 ITI      -0.761000
     36 N36         -3.5240    -2.7600     0.5730 nc         1 ITI      -0.634000
     37 N37         -2.0490    -4.2430    -0.1770 na         1 ITI      -0.111900
     38 N38          7.6200     1.6670    -0.5760 nh         1 ITI      -0.639000
     39 N39          2.4580    -0.5590    -0.3020 nu         1 ITI      -0.733300
     40 N40         -3.6710     2.3790     1.5420 ns         1 ITI      -0.477100
     41 O41         -5.1510     1.6020    -0.0030 o          1 ITI      -0.558100
     42 O42         10.3320     2.4340    -0.3010 os         1 ITI      -0.400600
     43 S43         -4.3950    -5.1710    -0.5730 ss         1 ITI      -0.091300
     44 H4          -0.0840     0.6190     3.6390 ha         1 ITI       0.130000
     45 H5          -0.3370    -1.5770     2.5520 ha         1 ITI       0.134000
     46 H7          -4.7310     5.2890    -1.3180 ha         1 ITI       0.128500
     47 H8           5.3730     2.8490     0.1970 ha         1 ITI       0.133500
     48 H10         -1.6510     2.4440     3.1470 ha         1 ITI       0.123000
     49 H13          0.5570    -5.2000     0.6260 ha         1 ITI       0.152000
     50 H15          3.0020    -4.8430     0.3800 h4         1 ITI       0.022100
     51 H26         -0.8510    -5.7960    -1.0630 h4         1 ITI       0.189000
     52 H1          -8.3810     4.9480    -3.5280 ha         1 ITI       0.130000
     53 H2          -9.3480     3.5850    -1.7020 ha         1 ITI       0.130500
     54 H3          -6.0630     5.7960    -3.3280 ha         1 ITI       0.130500
     55 H9           6.9400    -0.8950    -1.2050 ha         1 ITI       0.133500
     56 H11          3.1680     1.8540     0.3470 ha         1 ITI       0.144000
     57 H12          4.7320    -1.8560    -1.1170 ha         1 ITI       0.144000
     58 H14         -3.7650    -0.1290     0.4380 ha         1 ITI       0.181000
     59 H27         -3.1180    -7.0220    -1.5870 h4         1 ITI       0.185000
     60 H29          8.3180     0.5650    -2.2070 h1         1 ITI       0.046450
     61 H29A         9.0040     0.0570    -0.6590 h1         1 ITI       0.046450
     62 H30          8.3780     1.5340     1.3940 h1         1 ITI       0.046450
     63 H30A         7.3350     2.9210     1.0890 h1         1 ITI       0.046450
     64 H31         10.6790     1.2800    -1.9290 h1         1 ITI       0.052200
     65 H31A         9.5660     2.6280    -2.2110 h1         1 ITI       0.052200
     66 H32          8.9920     4.0110    -0.2910 h1         1 ITI       0.052200
     67 H32A         9.7210     3.5680     1.2620 h1         1 ITI       0.052200
     68 H33         -4.7290     4.6230     1.0320 hc         1 ITI       0.063200
     69 H33A        -6.0940     3.7810     1.7330 hc         1 ITI       0.063200
     70 HN39         1.7360     0.1450    -0.2900 hn         1 ITI       0.458800
     71 HN40        -3.4440     3.1990     2.0830 hn         1 ITI       0.311500
     72 H6          -8.0150     3.0840     0.3070 ha         1 ITI       0.128500
@<TRIPOS>BOND
     1     1     2 ar  
     2     1     6 ar  
     3     1    44 1   
     4     2    23 ar  
     5     2    45 1   
     6     3     9 ar  
     7     3    17 ar  
     8     3    72 1   
     9     4     9 ar  
    10     4    18 ar  
    11     4    46 1   
    12     5    20 ar  
    13     5    24 ar  
    14     5    47 1   
    15     6    10 ar  
    16     6    48 1   
    17     7     8 ar  
    18     7    11 ar  
    19     7    49 1   
    20     8    34 ar  
    21     8    50 1   
    22     9    33 1   
    23    10    22 ar  
    24    10    40 1   
    25    11    26 1   
    26    11    35 ar  
    27    12    23 1   
    28    12    26 2   
    29    12    36 1   
    30    13    34 ar  
    31    13    35 ar  
    32    13    39 1   
    33    14    28 2   
    34    14    37 1   
    35    14    51 1   
    36    15    33 1   
    37    15    40 1   
    38    15    41 2   
    39    16    17 ar  
    40    16    18 ar  
    41    16    52 1   
    42    17    53 1   
    43    18    54 1   
    44    19    21 ar  
    45    19    24 ar  
    46    19    55 1   
    47    20    25 ar  
    48    20    56 1   
    49    21    25 ar  
    50    21    57 1   
    51    22    23 ar  
    52    22    58 1   
    53    24    38 1   
    54    25    39 1   
    55    26    37 1   
    56    27    36 2   
    57    27    37 1   
    58    27    43 1   
    59    28    43 1   
    60    28    59 1   
    61    29    31 1   
    62    29    38 1   
    63    29    60 1   
    64    29    61 1   
    65    30    32 1   
    66    30    38 1   
    67    30    62 1   
    68    30    63 1   
    69    31    42 1   
    70    31    64 1   
    71    31    65 1   
    72    32    42 1   
    73    32    66 1   
    74    32    67 1   
    75    33    68 1   
    76    33    69 1   
    77    39    70 1   
    78    40    71 1   
@<TRIPOS>SUBSTRUCTURE
     1 ITI         1 TEMP              0 ****  ****    0 ROOT
