@<TRIPOS>MOLECULE
ITJ
   21    22     1     0     0
SMALL
No Charge or Current Charge


@<TRIPOS>ATOM
      1 C10        -22.7160    23.1810   -25.8200 c3         1 ITJ       0.226100
      2 C02        -22.7790    28.8990   -23.7500 cc         1 ITJ       0.257300
      3 C03        -23.4820    27.6410   -23.8100 ca         1 ITJ      -0.007300
      4 C07        -22.6940    26.8100   -24.5400 ca         1 ITJ      -0.198200
      5 C08        -23.1160    25.4930   -24.7770 ca         1 ITJ       0.413900
      6 C12        -25.0110    25.9900   -23.5520 ca         1 ITJ       0.243000
      7 N04        -24.6650    27.2750   -23.2860 nb         1 ITJ      -0.137000
      8 N05        -21.6120    28.8440   -24.4140 nd         1 ITJ      -0.505100
      9 N06        -21.5700    27.5290   -24.9050 na         1 ITJ      -0.051400
     10 N09        -22.3630    24.5840   -25.5160 nu         1 ITJ      -0.932100
     11 N11        -24.2990    25.0800   -24.2700 nb         1 ITJ      -0.253000
     12 Cl13       -26.5470    25.4400   -22.9000 cl         1 ITJ      -0.149000
     13 H102       -21.9300    22.7060   -26.4230 h1         1 ITJ       0.049367
     14 H103       -22.8360    22.6030   -24.8940 h1         1 ITJ       0.049367
     15 H101       -23.6580    23.1330   -26.3830 h1         1 ITJ       0.049367
     16 H012       -22.5460    30.9580   -23.1450 hc         1 ITJ       0.057033
     17 H013       -24.2210    30.4640   -23.4570 hc         1 ITJ       0.057033
     18 H011       -23.4020    29.9360   -21.9750 hc         1 ITJ       0.057033
     19 H061       -20.7810    27.1960   -25.4600 hn         1 ITJ       0.378000
     20 H091       -21.4750    24.9280   -25.8840 hn         1 ITJ       0.494000
     21 C01        -23.2620    30.1330   -23.0430 c3         1 ITJ      -0.098400
@<TRIPOS>BOND
     1     1    10 1   
     2     1    13 1   
     3     1    14 1   
     4     1    15 1   
     5     2     3 1   
     6     2     8 2   
     7     2    21 1   
     8     3     4 ar  
     9     3     7 ar  
    10     4     5 ar  
    11     4     9 1   
    12     5    10 1   
    13     5    11 ar  
    14     6     7 ar  
    15     6    11 ar  
    16     6    12 1   
    17     8     9 1   
    18     9    19 1   
    19    10    20 1   
    20    16    21 1   
    21    17    21 1   
    22    18    21 1   
@<TRIPOS>SUBSTRUCTURE
     1 ITJ         1 TEMP              0 ****  ****    0 ROOT
