@<TRIPOS>MOLECULE
ITJ
   21    22     1     0     0
SMALL
abcg2


@<TRIPOS>ATOM
      1 C10        -22.7690    23.2240   -25.7720 c3         1 ITJ       0.226100
      2 C02        -22.8170    28.8810   -23.7340 cc         1 ITJ       0.257300
      3 C03        -23.4900    27.6290   -23.8090 ca         1 ITJ      -0.007300
      4 C07        -22.6550    26.8030   -24.5660 ca         1 ITJ      -0.198200
      5 C08        -23.0690    25.4660   -24.8170 ca         1 ITJ       0.413900
      6 C12        -24.9500    25.9730   -23.6000 ca         1 ITJ       0.243000
      7 N04        -24.6850    27.2140   -23.3010 nb         1 ITJ      -0.137000
      8 N05        -21.6690    28.8030   -24.3960 nd         1 ITJ      -0.505100
      9 N06        -21.5740    27.5510   -24.8970 na         1 ITJ      -0.051400
     10 N09        -22.3490    24.5930   -25.5280 nu         1 ITJ      -0.932100
     11 N11        -24.2470    25.0850   -24.3050 nb         1 ITJ      -0.253000
     12 CL13       -26.4820    25.3470   -22.9860 cl         1 ITJ      -0.149000
     13 H102       -22.0110    22.7440   -26.3860 h1         1 ITJ       0.049367
     14 H103       -22.8740    22.6740   -24.8350 h1         1 ITJ       0.049367
     15 H101       -23.7260    23.1980   -26.2970 h1         1 ITJ       0.049367
     16 H012       -22.5190    30.9150   -23.1850 hc         1 ITJ       0.057033
     17 H013       -24.2160    30.4680   -23.4380 hc         1 ITJ       0.057033
     18 H011       -23.3860    29.9520   -21.9750 hc         1 ITJ       0.057033
     19 H061       -20.7630    27.2910   -25.4350 hn         1 ITJ       0.378000
     20 H091       -21.4590    24.8870   -25.8960 hn         1 ITJ       0.494000
     21 C01        -23.2560    30.1250   -23.0460 c3         1 ITJ      -0.098400
@<TRIPOS>BOND
     1     1    10 1   
     2     1    13 1   
     3     1    14 1   
     4     1    15 1   
     5     2     3 1   
     6     2     8 2   
     7     2    21 1   
     8     3     4 ar  
     9     3     7 ar  
    10     4     5 ar  
    11     4     9 1   
    12     5    10 1   
    13     5    11 ar  
    14     6     7 ar  
    15     6    11 ar  
    16     6    12 1   
    17     8     9 1   
    18     9    19 1   
    19    10    20 1   
    20    16    21 1   
    21    17    21 1   
    22    18    21 1   
@<TRIPOS>SUBSTRUCTURE
     1 ITJ         1 TEMP              0 ****  ****    0 ROOT
