@<TRIPOS>MOLECULE
ITL
  118   121     1     0     0
SMALL
No Charge or Current Charge


@<TRIPOS>ATOM
      1 C8           8.6710     1.1930     2.4140 c6         1 ITL      -0.045700
      2 C5           9.9570     3.5260     3.8500 c6         1 ITL      -0.050700
      3 C6           9.1020     2.4680     4.6010 c6         1 ITL      -0.073400
      4 O6          10.8820     6.2340    12.3680 o          1 ITL      -0.771375
      5 C2          10.5510     5.3130     1.4650 c6         1 ITL      -0.085400
      6 C4           9.1240     4.8100     3.5200 c6         1 ITL      -0.087400
      7 O1           2.9660    -3.8650    -2.7950 o          1 ITL      -0.752500
      8 C24          3.4180    -2.9490    -3.4650 c          1 ITL       0.716000
      9 O2           2.7360    -2.2510    -4.1990 o          1 ITL      -0.752500
     10 C22          5.1450    -1.5870    -2.1940 c3         1 ITL      -0.061400
     11 C20          6.6290    -1.3660    -1.7500 c3         1 ITL      -0.054700
     12 C21          7.4820    -0.8270    -2.9280 c3         1 ITL      -0.079100
     13 C17          6.6930    -0.4280    -0.4570 c5         1 ITL      -0.051700
     14 C16          5.9380    -1.0480     0.7790 c5         1 ITL      -0.076400
     15 C15          6.6280    -0.4700     2.0540 c5         1 ITL      -0.073400
     16 C14          7.5730     0.6100     1.4750 c5         1 ITL      -0.061700
     17 C13          8.1210    -0.0810     0.1820 c5         1 ITL      -0.040000
     18 C18          9.0650    -1.3340     0.4460 c3         1 ITL      -0.071100
     19 C12          8.9480     0.9980    -0.5860 c6         1 ITL      -0.061400
     20 C11         10.0670     1.6350     0.2880 c6         1 ITL      -0.070400
     21 C9           9.5280     2.2540     1.6250 c6         1 ITL      -0.043700
     22 C7           8.0390     1.8150     3.6900 c6         1 ITL      -0.068400
     23 C10         10.6520     2.9280     2.5340 c6         1 ITL      -0.030000
     24 C19         11.7360     1.8770     2.9620 c3         1 ITL      -0.083100
     25 C1          11.4390     4.0730     1.7450 c6         1 ITL      -0.066400
     26 C3           9.9360     5.8990     2.7670 c6         1 ITL       0.123700
     27 N4          10.9760     6.4620     3.6390 ns         1 ITL      -0.522900
     28 C41         11.5360     7.7120     3.5200 c          1 ITL       0.599100
     29 O           11.2000     8.4980     2.6450 o          1 ITL      -0.672100
     30 C40         12.6290     8.0310     4.5440 c3         1 ITL      -0.160400
     31 C39         12.1090     8.9860     5.6490 c3         1 ITL      -0.077400
     32 C35         13.1930     9.6110     6.5950 c3         1 ITL       0.077500
     33 C36         12.6180    10.8450     7.4090 c          1 ITL       0.719000
     34 O9          11.4080    10.9550     7.5780 o          1 ITL      -0.725500
     35 O8          13.4010    11.7310     7.7330 o          1 ITL      -0.725500
     36 N2          14.0430     8.6150     7.3740 n3         1 ITL      -0.694600
     37 C29         15.2490     8.1400     6.6300 c3         1 ITL       0.220300
     38 C30         16.3720     7.4920     7.5030 c3         1 ITL       0.186800
     39 C37         17.7030     6.3570     5.6870 c3         1 ITL       0.047300
     40 C38         17.0100     6.7880     4.3390 c          1 ITL       0.718250
     41 O11         16.1610     6.0460     3.8590 o          1 ITL      -0.771375
     42 O10         17.3800     7.8150     3.7820 o          1 ITL      -0.771375
     43 C31         18.7480     6.9260     7.8830 c3         1 ITL       0.047300
     44 C32         20.2620     6.8880     7.4480 c          1 ITL       0.718250
     45 O13         20.8060     5.7990     7.3020 o          1 ITL      -0.771375
     46 O4          20.8640     7.9470     7.3100 o          1 ITL      -0.771375
     47 C28         13.3020     7.5210     8.0860 c3         1 ITL       0.220300
     48 C27         12.2450     7.9120     9.1750 c3         1 ITL       0.186800
     49 C33         11.6330     8.3780    11.5420 c3         1 ITL       0.047300
     50 C34         10.5770     7.2220    11.7090 c          1 ITL       0.718250
     51 O7           9.4710     7.3570    11.1980 o          1 ITL      -0.771375
     52 C26         13.7480     9.3240    10.6080 c3         1 ITL       0.047300
     53 C25         14.4080     9.6830    11.9930 c          1 ITL       0.718250
     54 O12         14.0240    10.6850    12.5870 o          1 ITL      -0.771375
     55 O3          15.3050     8.9670    12.4250 o          1 ITL      -0.771375
     56 HN4         11.3280     5.8870     4.3930 hn         1 ITL       0.327500
     57 H8           9.3150     0.3650     2.7330 hc         1 ITL       0.041700
     58 H5          10.7560     3.8320     4.5400 hc         1 ITL       0.072700
     59 H6           9.7510     1.6890     5.0220 hc         1 ITL       0.046700
     60 H6A          8.6070     2.9340     5.4650 hc         1 ITL       0.046700
     61 H2          11.1490     6.0830     0.9600 hc         1 ITL       0.037700
     62 H2A          9.7490     5.0530     0.7620 hc         1 ITL       0.037700
     63 H4           8.2430     4.5590     2.9160 hc         1 ITL       0.045200
     64 H4A          8.7250     5.2380     4.4500 hc         1 ITL       0.045200
     65 H23          5.4790    -3.5190    -3.0470 hc         1 ITL       0.012200
     66 H23A         5.2740    -2.1510    -4.2580 hc         1 ITL       0.012200
     67 H22          4.7070    -0.6260    -2.4900 hc         1 ITL       0.041200
     68 H22A         4.5660    -1.9330    -1.3310 hc         1 ITL       0.041200
     69 H20          7.0310    -2.3820    -1.5450 hc         1 ITL       0.033700
     70 H21          7.2670     0.2310    -3.1200 hc         1 ITL       0.022033
     71 H21A         8.5480    -0.9440    -2.7140 hc         1 ITL       0.022033
     72 H21B         7.3070    -1.3850    -3.8520 hc         1 ITL       0.022033
     73 H17          6.1920     0.5040    -0.7520 hc         1 ITL       0.041700
     74 H16          4.8720    -0.7940     0.7570 hc         1 ITL       0.039200
     75 H16A         5.9970    -2.1430     0.7820 hc         1 ITL       0.039200
     76 H15          5.8970    -0.0450     2.7510 hc         1 ITL       0.034700
     77 H15A         7.1770    -1.2430     2.6030 hc         1 ITL       0.034700
     78 H14          6.9680     1.4860     1.2040 hc         1 ITL       0.043700
     79 H18          9.4690    -1.7210    -0.4970 hc         1 ITL       0.024700
     80 H18A         9.9180    -1.0970     1.0890 hc         1 ITL       0.024700
     81 H18B         8.5300    -2.1650     0.9190 hc         1 ITL       0.024700
     82 H12          9.4190     0.5780    -1.4810 hc         1 ITL       0.030200
     83 H12A         8.2740     1.7910    -0.9400 hc         1 ITL       0.030200
     84 H11         10.8440     0.8870     0.4900 hc         1 ITL       0.033200
     85 H11A        10.5490     2.4090    -0.3220 hc         1 ITL       0.033200
     86 H9           8.8290     3.0430     1.3200 hc         1 ITL       0.049700
     87 H7           7.2750     2.5530     3.4140 hc         1 ITL       0.030200
     88 H7A          7.5160     1.0380     4.2640 hc         1 ITL       0.030200
     89 H19         12.3160     1.5180     2.1050 hc         1 ITL       0.026367
     90 H19A        12.4560     2.3190     3.6620 hc         1 ITL       0.026367
     91 H19B        11.3140     0.9980     3.4590 hc         1 ITL       0.026367
     92 H1          11.8770     3.7010     0.8120 hc         1 ITL       0.037700
     93 H1A         12.2990     4.3970     2.3470 hc         1 ITL       0.037700
     94 H3           9.2490     6.7130     2.4950 h1         1 ITL       0.056700
     95 H40         12.9650     7.1010     5.0150 hc         1 ITL       0.066700
     96 H40A        13.4640     8.5150     4.0250 hc         1 ITL       0.066700
     97 H39         11.5940     9.8140     5.1480 hc         1 ITL       0.031200
     98 H39A        11.3450     8.4710     6.2430 hc         1 ITL       0.031200
     99 H35         13.8730    10.1270     5.9050 h1         1 ITL       0.077700
    100 H29         14.9460     7.4160     5.8680 h1         1 ITL      -0.012300
    101 H29A        15.6990     8.9950     6.1080 h1         1 ITL      -0.012300
    102 H30         16.0140     6.5220     7.8750 h1         1 ITL       0.003950
    103 H30A        16.5000     8.1380     8.3820 h1         1 ITL       0.003950
    104 H37         18.7410     6.1320     5.4080 h1         1 ITL       0.003700
    105 H37A        17.2620     5.4010     6.0010 h1         1 ITL       0.003700
    106 H31         18.6910     7.6320     8.7230 h1         1 ITL       0.003700
    107 H31A        18.5000     5.9390     8.2990 h1         1 ITL       0.003700
    108 H28         12.7860     6.9090     7.3360 h1         1 ITL      -0.012300
    109 H28A        14.0150     6.8450     8.5730 h1         1 ITL      -0.012300
    110 H27         11.5650     7.0520     9.2410 h1         1 ITL       0.003950
    111 H27A        11.6350     8.7460     8.8150 h1         1 ITL       0.003950
    112 H33         12.0590     8.5460    12.5400 h1         1 ITL       0.003700
    113 H33A        11.0790     9.2930    11.2890 h1         1 ITL       0.003700
    114 H26         14.5820     9.1030     9.9300 h1         1 ITL       0.003700
    115 H26A        13.2710    10.2380    10.2280 h1         1 ITL       0.003700
    116 C23          4.9190    -2.6210    -3.3340 c3         1 ITL      -0.202400
    117 N1          12.7510     8.1990    10.5540 n3         1 ITL      -0.625100
    118 N3          17.7090     7.2990     6.8640 n3         1 ITL      -0.625100
@<TRIPOS>BOND
     1     1    16 1   
     2     1    21 1   
     3     1    22 1   
     4     1    57 1   
     5     2     3 1   
     6     2     6 1   
     7     2    23 1   
     8     2    58 1   
     9     3    22 1   
    10     3    59 1   
    11     3    60 1   
    12     4    50 1   
    13     5    25 1   
    14     5    26 1   
    15     5    61 1   
    16     5    62 1   
    17     6    26 1   
    18     6    63 1   
    19     6    64 1   
    20     7     8 1   
    21     8     9 1   
    22     8   116 1   
    23    10    11 1   
    24    10    67 1   
    25    10    68 1   
    26    10   116 1   
    27    11    12 1   
    28    11    13 1   
    29    11    69 1   
    30    12    70 1   
    31    12    71 1   
    32    12    72 1   
    33    13    14 1   
    34    13    17 1   
    35    13    73 1   
    36    14    15 1   
    37    14    74 1   
    38    14    75 1   
    39    15    16 1   
    40    15    76 1   
    41    15    77 1   
    42    16    17 1   
    43    16    78 1   
    44    17    18 1   
    45    17    19 1   
    46    18    79 1   
    47    18    80 1   
    48    18    81 1   
    49    19    20 1   
    50    19    82 1   
    51    19    83 1   
    52    20    21 1   
    53    20    84 1   
    54    20    85 1   
    55    21    23 1   
    56    21    86 1   
    57    22    87 1   
    58    22    88 1   
    59    23    24 1   
    60    23    25 1   
    61    24    89 1   
    62    24    90 1   
    63    24    91 1   
    64    25    92 1   
    65    25    93 1   
    66    26    27 1   
    67    26    94 1   
    68    27    28 1   
    69    27    56 1   
    70    28    29 2   
    71    28    30 1   
    72    30    31 1   
    73    30    95 1   
    74    30    96 1   
    75    31    32 1   
    76    31    97 1   
    77    31    98 1   
    78    32    33 1   
    79    32    36 1   
    80    32    99 1   
    81    33    34 1   
    82    33    35 1   
    83    36    37 1   
    84    36    47 1   
    85    37    38 1   
    86    37   100 1   
    87    37   101 1   
    88    38   102 1   
    89    38   103 1   
    90    38   118 1   
    91    39    40 1   
    92    39   104 1   
    93    39   105 1   
    94    39   118 1   
    95    40    41 1   
    96    40    42 1   
    97    43    44 1   
    98    43   106 1   
    99    43   107 1   
   100    43   118 1   
   101    44    45 1   
   102    44    46 1   
   103    47    48 1   
   104    47   108 1   
   105    47   109 1   
   106    48   110 1   
   107    48   111 1   
   108    48   117 1   
   109    49    50 1   
   110    49   112 1   
   111    49   113 1   
   112    49   117 1   
   113    50    51 1   
   114    52    53 1   
   115    52   114 1   
   116    52   115 1   
   117    52   117 1   
   118    53    54 1   
   119    53    55 1   
   120    65   116 1   
   121    66   116 1   
@<TRIPOS>SUBSTRUCTURE
     1 ITL         1 TEMP              0 ****  ****    0 ROOT
