@<TRIPOS>MOLECULE
ITL
  118   121     1     0     0
SMALL
bcc


@<TRIPOS>ATOM
      1 C8           8.4850     1.1460     2.2680 c6         1 ITL      -0.045700
      2 C5          10.3010     3.1340     3.5260 c6         1 ITL      -0.050700
      3 C6           9.3200     2.3020     4.3540 c6         1 ITL      -0.073400
      4 O6          13.4600     5.1580    10.2520 o          1 ITL      -0.876675
      5 C2          11.0380     4.7140     1.1410 c6         1 ITL      -0.085400
      6 C4           9.7280     4.5320     3.2600 c6         1 ITL      -0.087400
      7 O1           1.7260    -2.1370    -2.2040 o          1 ITL      -0.857800
      8 C24          2.5190    -2.6250    -3.0350 c          1 ITL       0.926600
      9 O2           2.2150    -3.2810    -4.0540 o          1 ITL      -0.857800
     10 C22          4.4200    -1.2780    -1.8830 c3         1 ITL      -0.061400
     11 C20          5.9120    -1.2160    -1.5240 c3         1 ITL      -0.054700
     12 C21          6.7500    -0.9440    -2.7710 c3         1 ITL      -0.079100
     13 C17          6.1430    -0.1790    -0.4140 c5         1 ITL      -0.051700
     14 C16          5.3210    -0.4980     0.8650 c5         1 ITL      -0.076400
     15 C15          6.1410     0.0050     2.0690 c5         1 ITL      -0.073400
     16 C14          7.2650     0.8070     1.4280 c5         1 ITL      -0.061700
     17 C13          7.5780     0.0410     0.1290 c5         1 ITL      -0.040000
     18 C18          8.2510    -1.3100     0.3940 c3         1 ITL      -0.071100
     19 C12          8.4970     0.9390    -0.7010 c6         1 ITL      -0.061400
     20 C11          9.7560     1.3390     0.0760 c6         1 ITL      -0.070400
     21 C9           9.4550     2.0000     1.4270 c6         1 ITL      -0.043700
     22 C7           8.0970     1.8750     3.5530 c6         1 ITL      -0.068400
     23 C10         10.7240     2.4030     2.2270 c6         1 ITL      -0.030000
     24 C19         11.5690     1.1730     2.5850 c3         1 ITL      -0.083100
     25 C1          11.6410     3.3490     1.4300 c6         1 ITL      -0.066400
     26 C3          10.6350     5.4330     2.4280 c6         1 ITL       0.123700
     27 N4          11.7830     5.8400     3.2250 ns         1 ITL      -0.589900
     28 C41         12.5300     6.9260     2.9580 c          1 ITL       0.666100
     29 O           12.3830     7.5980     1.9430 o          1 ITL      -0.672100
     30 C40         13.5190     7.3130     4.0360 c3         1 ITL      -0.160400
     31 C39         12.9520     8.4930     4.8320 c3         1 ITL      -0.077400
     32 C35         13.8790     9.0370     5.9230 c3         1 ITL       0.077500
     33 C36         13.2780    10.3160     6.5850 c          1 ITL       0.929600
     34 O9          12.0600    10.5420     6.4280 o          1 ITL      -0.830800
     35 O8          14.0840    11.0340     7.2110 o          1 ITL      -0.830800
     36 N2          14.3300     8.0710     6.9260 n3         1 ITL      -0.694600
     37 C29         15.5460     7.3350     6.6080 c3         1 ITL       0.220300
     38 C30         16.4950     7.2240     7.7980 c3         1 ITL       0.186800
     39 C37         18.3700     8.6240     7.2500 c3         1 ITL       0.047300
     40 C38         18.0920     9.2430     5.8620 c          1 ITL       0.928850
     41 O11         18.6690     8.7060     4.8940 o          1 ITL      -0.876675
     42 O10         17.3730    10.2620     5.8290 o          1 ITL      -0.876675
     43 C31         17.6620     8.4050     9.5140 c3         1 ITL       0.047300
     44 C32         18.1520     9.7450    10.1050 c          1 ITL       0.928850
     45 O13         18.8450     9.6370    11.1390 o          1 ITL      -0.876675
     46 O4          17.7860    10.8030     9.5590 o          1 ITL      -0.876675
     47 C28         13.3130     7.2160     7.5110 c3         1 ITL       0.220300
     48 C27         12.4680     7.7960     8.6420 c3         1 ITL       0.186800
     49 C33         12.4950     7.2360    10.9760 c3         1 ITL       0.047300
     50 C34         12.5200     5.6960    10.8690 c          1 ITL       0.928850
     51 O7          11.5970     5.1100    11.4760 o          1 ITL      -0.876675
     52 C26         13.3470     9.3550    10.2610 c3         1 ITL       0.047300
     53 C25         14.2850     9.6800    11.4430 c          1 ITL       0.928850
     54 O12         14.1980    10.8540    11.8590 o          1 ITL      -0.876675
     55 O3          15.0650     8.8020    11.8640 o          1 ITL      -0.876675
     56 HN4         11.9410     5.3720     4.1030 hn         1 ITL       0.327500
     57 H8           8.9830     0.2110     2.5540 hc         1 ITL       0.041700
     58 H5          11.2110     3.2510     4.1300 hc         1 ITL       0.072700
     59 H6           9.8280     1.4100     4.7310 hc         1 ITL       0.046700
     60 H6A          9.0140     2.8710     5.2370 hc         1 ITL       0.046700
     61 H2          11.7420     5.3270     0.5760 hc         1 ITL       0.037700
     62 H2A         10.1470     4.6160     0.5130 hc         1 ITL       0.037700
     63 H4           8.7740     4.4580     2.7330 hc         1 ITL       0.045200
     64 H4A          9.5030     5.0160     4.2150 hc         1 ITL       0.045200
     65 H23          4.3930    -3.3770    -2.3150 hc         1 ITL       0.012200
     66 H23A         4.5400    -2.3930    -3.7420 hc         1 ITL       0.012200
     67 H22          4.1360    -0.3320    -2.3600 hc         1 ITL       0.041200
     68 H22A         3.8260    -1.3400    -0.9710 hc         1 ITL       0.041200
     69 H20          6.1930    -2.2010    -1.1270 hc         1 ITL       0.033700
     70 H21          6.5800     0.0710    -3.1390 hc         1 ITL       0.022033
     71 H21A         7.8170    -1.0540    -2.5860 hc         1 ITL       0.022033
     72 H21B         6.4980    -1.6310    -3.5800 hc         1 ITL       0.022033
     73 H17          5.8060     0.7910    -0.8090 hc         1 ITL       0.041700
     74 H16          4.3400    -0.0230     0.8280 hc         1 ITL       0.039200
     75 H16A         5.1360    -1.5730     0.9420 hc         1 ITL       0.039200
     76 H15          5.5410     0.6020     2.7570 hc         1 ITL       0.034700
     77 H15A         6.5440    -0.8290     2.6500 hc         1 ITL       0.034700
     78 H14          6.8270     1.7680     1.1110 hc         1 ITL       0.043700
     79 H18          8.5160    -1.7970    -0.5460 hc         1 ITL       0.024700
     80 H18A         9.1720    -1.2170     0.9700 hc         1 ITL       0.024700
     81 H18B         7.6030    -2.0010     0.9370 hc         1 ITL       0.024700
     82 H12          8.7990     0.4570    -1.6320 hc         1 ITL       0.030200
     83 H12A         7.9430     1.8420    -0.9860 hc         1 ITL       0.030200
     84 H11         10.3910     0.4600     0.2140 hc         1 ITL       0.033200
     85 H11A        10.3340     2.0250    -0.5480 hc         1 ITL       0.033200
     86 H9           8.9050     2.9210     1.1890 hc         1 ITL       0.049700
     87 H7           7.4840     2.7470     3.2970 hc         1 ITL       0.030200
     88 H7A          7.4640     1.2330     4.1700 hc         1 ITL       0.030200
     89 H19         12.0150     0.7280     1.6940 hc         1 ITL       0.026367
     90 H19A        12.3910     1.4590     3.2470 hc         1 ITL       0.026367
     91 H19B        11.0040     0.3910     3.0890 hc         1 ITL       0.026367
     92 H1          11.9490     2.8730     0.4960 hc         1 ITL       0.037700
     93 H1A         12.5640     3.4890     2.0050 hc         1 ITL       0.037700
     94 H3          10.0780     6.3370     2.1650 h1         1 ITL       0.056700
     95 H40         13.7290     6.4680     4.6940 hc         1 ITL       0.066700
     96 H40A        14.4630     7.5950     3.5650 hc         1 ITL       0.066700
     97 H39         12.7490     9.3090     4.1350 hc         1 ITL       0.031200
     98 H39A        11.9820     8.2140     5.2490 hc         1 ITL       0.031200
     99 H35         14.7910     9.3800     5.4270 h1         1 ITL       0.077700
    100 H29         15.3250     6.3090     6.2760 h1         1 ITL      -0.012300
    101 H29A        16.0490     7.8040     5.7630 h1         1 ITL      -0.012300
    102 H30         17.1880     6.3830     7.6130 h1         1 ITL       0.003950
    103 H30A        15.8970     6.9290     8.6660 h1         1 ITL       0.003950
    104 H37         19.0610     9.3180     7.7390 h1         1 ITL       0.003700
    105 H37A        18.9240     7.6780     7.1260 h1         1 ITL       0.003700
    106 H31         16.8090     8.1110    10.1340 h1         1 ITL       0.003700
    107 H31A        18.4380     7.6380     9.6880 h1         1 ITL       0.003700
    108 H28         12.6190     6.8300     6.7470 h1         1 ITL      -0.012300
    109 H28A        13.8030     6.3360     7.9260 h1         1 ITL      -0.012300
    110 H27         11.6330     7.1000     8.7730 h1         1 ITL       0.003950
    111 H27A        12.0010     8.7350     8.3260 h1         1 ITL       0.003950
    112 H33         12.9820     7.4820    11.9230 h1         1 ITL       0.003700
    113 H33A        11.4440     7.5570    11.0890 h1         1 ITL       0.003700
    114 H26         13.7660     9.8680     9.3900 h1         1 ITL       0.003700
    115 H26A        12.3810     9.8570    10.4580 h1         1 ITL       0.003700
    116 C23          4.0310    -2.4480    -2.7770 c3         1 ITL      -0.202400
    117 N1          13.1650     7.9600     9.9170 n3         1 ITL      -0.625100
    118 N3          17.2280     8.4360     8.1310 n3         1 ITL      -0.625100
@<TRIPOS>BOND
     1     1    16 1   
     2     1    21 1   
     3     1    22 1   
     4     1    57 1   
     5     2     3 1   
     6     2     6 1   
     7     2    23 1   
     8     2    58 1   
     9     3    22 1   
    10     3    59 1   
    11     3    60 1   
    12     4    50 1   
    13     5    25 1   
    14     5    26 1   
    15     5    61 1   
    16     5    62 1   
    17     6    26 1   
    18     6    63 1   
    19     6    64 1   
    20     7     8 1   
    21     8     9 1   
    22     8   116 1   
    23    10    11 1   
    24    10    67 1   
    25    10    68 1   
    26    10   116 1   
    27    11    12 1   
    28    11    13 1   
    29    11    69 1   
    30    12    70 1   
    31    12    71 1   
    32    12    72 1   
    33    13    14 1   
    34    13    17 1   
    35    13    73 1   
    36    14    15 1   
    37    14    74 1   
    38    14    75 1   
    39    15    16 1   
    40    15    76 1   
    41    15    77 1   
    42    16    17 1   
    43    16    78 1   
    44    17    18 1   
    45    17    19 1   
    46    18    79 1   
    47    18    80 1   
    48    18    81 1   
    49    19    20 1   
    50    19    82 1   
    51    19    83 1   
    52    20    21 1   
    53    20    84 1   
    54    20    85 1   
    55    21    23 1   
    56    21    86 1   
    57    22    87 1   
    58    22    88 1   
    59    23    24 1   
    60    23    25 1   
    61    24    89 1   
    62    24    90 1   
    63    24    91 1   
    64    25    92 1   
    65    25    93 1   
    66    26    27 1   
    67    26    94 1   
    68    27    28 1   
    69    27    56 1   
    70    28    29 2   
    71    28    30 1   
    72    30    31 1   
    73    30    95 1   
    74    30    96 1   
    75    31    32 1   
    76    31    97 1   
    77    31    98 1   
    78    32    33 1   
    79    32    36 1   
    80    32    99 1   
    81    33    34 1   
    82    33    35 1   
    83    36    37 1   
    84    36    47 1   
    85    37    38 1   
    86    37   100 1   
    87    37   101 1   
    88    38   102 1   
    89    38   103 1   
    90    38   118 1   
    91    39    40 1   
    92    39   104 1   
    93    39   105 1   
    94    39   118 1   
    95    40    41 1   
    96    40    42 1   
    97    43    44 1   
    98    43   106 1   
    99    43   107 1   
   100    43   118 1   
   101    44    45 1   
   102    44    46 1   
   103    47    48 1   
   104    47   108 1   
   105    47   109 1   
   106    48   110 1   
   107    48   111 1   
   108    48   117 1   
   109    49    50 1   
   110    49   112 1   
   111    49   113 1   
   112    49   117 1   
   113    50    51 1   
   114    52    53 1   
   115    52   114 1   
   116    52   115 1   
   117    52   117 1   
   118    53    54 1   
   119    53    55 1   
   120    65   116 1   
   121    66   116 1   
@<TRIPOS>SUBSTRUCTURE
     1 ITL         1 TEMP              0 ****  ****    0 ROOT
