@<TRIPOS>MOLECULE
ITN
   13    12     1     0     0
SMALL
No Charge or Current Charge


@<TRIPOS>ATOM
      1 C1          -1.7750     0.0520    -0.1840 c          1 ITN       0.742000
      2 C2          -0.7840     0.5300     0.9020 c3         1 ITN      -0.156200
      3 C3           0.6330     0.6900     0.3270 ce         1 ITN      -0.083400
      4 C5           1.5760    -0.5230     0.3420 c          1 ITN       0.716200
      5 O3           1.1970    -1.5820     0.8240 o          1 ITN      -0.752000
      6 O4           2.7040    -0.3960    -0.1190 o          1 ITN      -0.752000
      7 C4           1.0290     1.9120    -0.1280 c2         1 ITN      -0.426000
      8 O1          -2.3070     0.8960    -0.8940 o          1 ITN      -0.764500
      9 O2          -1.9210    -1.1490    -0.3610 o          1 ITN      -0.764500
     10 H1          -1.0930     1.5190     1.2650 hc         1 ITN       0.004200
     11 H2          -0.7390    -0.2010     1.7180 hc         1 ITN       0.004200
     12 H4           2.0290     2.0810    -0.5240 ha         1 ITN       0.116000
     13 H5           0.3580     2.7710    -0.1180 ha         1 ITN       0.116000
@<TRIPOS>BOND
     1     1     2 1   
     2     1     8 1   
     3     1     9 1   
     4     2     3 1   
     5     2    10 1   
     6     2    11 1   
     7     3     4 1   
     8     3     7 2   
     9     4     5 1   
    10     4     6 1   
    11     7    12 1   
    12     7    13 1   
@<TRIPOS>SUBSTRUCTURE
     1 ITN         1 TEMP              0 ****  ****    0 ROOT
