@<TRIPOS>MOLECULE
ITN
   13    12     1     0     0
SMALL
abcg2


@<TRIPOS>ATOM
      1 C1          -1.6690    -0.2120    -0.1240 c          1 ITN       0.742000
      2 C2          -0.7480     0.5140     0.8760 c3         1 ITN      -0.156200
      3 C3           0.6100     0.7980     0.3190 ce         1 ITN      -0.083400
      4 C5           1.4570    -0.4070    -0.0680 c          1 ITN       0.716200
      5 O3           1.0520    -1.5130     0.3440 o          1 ITN      -0.752000
      6 O4           2.4870    -0.2040    -0.7430 o          1 ITN      -0.752000
      7 C4           1.0880     2.0350     0.1930 c2         1 ITN      -0.426000
      8 O1          -1.4230    -0.0550    -1.3360 o          1 ITN      -0.764500
      9 O2          -2.6200    -0.8610     0.3610 o          1 ITN      -0.764500
     10 H1          -1.2370     1.4540     1.1590 hc         1 ITN       0.004200
     11 H2          -0.6720    -0.0780     1.7910 hc         1 ITN       0.004200
     12 H4           2.0730     2.2260    -0.2130 ha         1 ITN       0.116000
     13 H5           0.5100     2.9040     0.4890 ha         1 ITN       0.116000
@<TRIPOS>BOND
     1     1     2 1   
     2     1     8 1   
     3     1     9 1   
     4     2     3 1   
     5     2    10 1   
     6     2    11 1   
     7     3     4 1   
     8     3     7 2   
     9     4     5 1   
    10     4     6 1   
    11     7    12 1   
    12     7    13 1   
@<TRIPOS>SUBSTRUCTURE
     1 ITN         1 TEMP              0 ****  ****    0 ROOT
