@<TRIPOS>MOLECULE
ITO
   22    23     1     0     0
SMALL
abcg2


@<TRIPOS>ATOM
      1 N1           4.3080    19.6280    -1.5040 nb         1 ITO      -0.697000
      2 C7           4.1460    18.7290    -0.5460 ca         1 ITO       0.360800
      3 O1           4.0290    19.0590     3.2940 o          1 ITO      -0.918667
      4 C1           5.7880    20.8680    -0.0890 ca         1 ITO       0.218000
      5 O5           3.9060    16.0380    -0.9350 o          1 ITO      -0.918667
      6 C5           5.2810    21.6540    -2.3390 ca         1 ITO      -0.067000
      7 C6           5.1080    20.7040    -1.3110 ca         1 ITO       0.218000
      8 C4           6.1210    22.7230    -2.1520 ca         1 ITO       0.055000
      9 O4           1.8100    17.3720    -0.1900 o          1 ITO      -0.918667
     10 C3           6.8210    22.8770    -0.9290 ca         1 ITO       0.055000
     11 O3           2.7090    17.5730    -2.5550 o          1 ITO      -0.918667
     12 C2           6.6530    21.9690     0.0850 ca         1 ITO      -0.067000
     13 N            5.6020    19.9770     0.9130 nb         1 ITO      -0.697000
     14 C            4.8090    18.9300     0.7520 ca         1 ITO       0.360800
     15 O            6.2060    17.7930     2.7640 o          1 ITO      -0.918667
     16 O2           3.9550    16.6990     2.3510 o          1 ITO      -0.918667
     17 P            4.7280    18.0050     2.4330 p5         1 ITO       1.109200
     18 P1           3.0420    17.2880    -1.0920 p5         1 ITO       1.109200
     19 CL           7.9040    24.2210    -0.6940 cl         1 ITO      -0.336500
     20 CL1          6.3210    23.8820    -3.4370 cl         1 ITO      -0.336500
     21 H3           4.7500    21.5250    -3.2720 ha         1 ITO       0.114000
     22 H2           7.1800    22.0850     1.0230 ha         1 ITO       0.114000
@<TRIPOS>BOND
     1     1     2 ar  
     2     1     7 ar  
     3     2    14 ar  
     4     2    18 1   
     5     3    17 1   
     6     4     7 ar  
     7     4    12 ar  
     8     4    13 ar  
     9     5    18 1   
    10     6     7 ar  
    11     6     8 ar  
    12     6    21 1   
    13     8    10 ar  
    14     8    20 1   
    15     9    18 1   
    16    10    12 ar  
    17    10    19 1   
    18    11    18 1   
    19    12    22 1   
    20    13    14 ar  
    21    14    17 1   
    22    15    17 1   
    23    16    17 1   
@<TRIPOS>SUBSTRUCTURE
     1 ITO         1 TEMP              0 ****  ****    0 ROOT
