@<TRIPOS>MOLECULE
ITO
   22    23     1     0     0
SMALL
No Charge or Current Charge


@<TRIPOS>ATOM
      1 N1           4.3400    19.7110    -1.5320 nb         1 ITO      -0.697000
      2 C7           4.1470    18.8220    -0.4790 ca         1 ITO       0.360800
      3 O1           3.3590    18.0880     2.9660 o          1 ITO      -0.918667
      4 C1           5.8560    20.9570    -0.1120 ca         1 ITO       0.218000
      5 O5           3.6930    16.1060    -1.0440 o          1 ITO      -0.918667
      6 C5           5.3850    21.6700    -2.4030 ca         1 ITO      -0.067000
      7 C6           5.1780    20.7580    -1.3520 ca         1 ITO       0.218000
      8 C4           6.2460    22.7680    -2.2480 ca         1 ITO       0.055000
      9 O4           1.9450    17.1720     0.2750 o          1 ITO      -0.918667
     10 C3           6.9160    22.9650    -1.0240 ca         1 ITO       0.055000
     11 O3           2.1650    17.6400    -2.0730 o          1 ITO      -0.918667
     12 C2           6.7170    22.0610     0.0310 ca         1 ITO      -0.067000
     13 N            5.6880    20.1030     0.9240 nb         1 ITO      -0.697000
     14 C            4.8350    19.0160     0.7600 ca         1 ITO       0.360800
     15 O            5.7360    18.1560     3.2730 o          1 ITO      -0.918667
     16 O2           4.7840    16.4110     1.9220 o          1 ITO      -0.918667
     17 P            4.6640    17.8600     2.2680 p5         1 ITO       1.109200
     18 P1           2.9430    17.3820    -0.8180 p5         1 ITO       1.109200
     19 Cl           8.0080    24.3320    -0.7860 cl         1 ITO      -0.336500
     20 Cl1          6.4670    23.8800    -3.6030 cl         1 ITO      -0.336500
     21 H3           4.8710    21.5230    -3.3480 ha         1 ITO       0.114000
     22 H2           7.2360    22.2170     0.9730 ha         1 ITO       0.114000
@<TRIPOS>BOND
     1     1     2 ar  
     2     1     7 ar  
     3     2    14 ar  
     4     2    18 1   
     5     3    17 1   
     6     4     7 ar  
     7     4    12 ar  
     8     4    13 ar  
     9     5    18 1   
    10     6     7 ar  
    11     6     8 ar  
    12     6    21 1   
    13     8    10 ar  
    14     8    20 1   
    15     9    18 1   
    16    10    12 ar  
    17    10    19 1   
    18    11    18 1   
    19    12    22 1   
    20    13    14 ar  
    21    14    17 1   
    22    15    17 1   
    23    16    17 1   
@<TRIPOS>SUBSTRUCTURE
     1 ITO         1 TEMP              0 ****  ****    0 ROOT
