@<TRIPOS>MOLECULE
ITP
   30    30     1     0     0
SMALL
abcg2


@<TRIPOS>ATOM
      1 C1           2.7650     2.9710     0.9200 c6         1 ITP       0.191300
      2 O1           3.4650     3.8630     1.7760 os         1 ITP      -0.607400
      3 C2           2.5150     1.6430     1.6200 c6         1 ITP       0.157300
      4 O2           3.7550     1.0650     2.0370 oh         1 ITP      -0.690000
      5 C3           1.7580     0.6700     0.7120 c6         1 ITP       0.191300
      6 O3           1.7060    -0.5780     1.3980 os         1 ITP      -0.607400
      7 C4           2.4220     0.4870    -0.6590 c6         1 ITP       0.157800
      8 O4           1.6070    -0.2780    -1.5350 oh         1 ITP      -0.863000
      9 C5           2.7080     1.8360    -1.2990 c6         1 ITP       0.144300
     10 O5           3.4120     1.6320    -2.5270 oh         1 ITP      -0.699000
     11 C6           3.5190     2.7550    -0.3890 c6         1 ITP       0.157800
     12 O6           3.7850     3.9620    -1.0900 oh         1 ITP      -0.863000
     13 P1           2.9190     5.4510     1.8600 p5         1 ITP       1.306900
     14 OP1          3.9910     6.1200     2.6960 o          1 ITP      -0.923667
     15 OP2          1.5350     5.3950     2.4860 o          1 ITP      -0.923667
     16 OP3          2.8880     5.9100     0.3900 o          1 ITP      -0.923667
     17 P3           0.2790    -1.4760     1.4030 p5         1 ITP       1.306900
     18 O10          0.6620    -2.6760     2.2430 o          1 ITP      -0.923667
     19 O11         -0.7900    -0.5720     1.9910 o          1 ITP      -0.923667
     20 O12          0.0440    -1.7980    -0.0830 o          1 ITP      -0.923667
     21 H1           1.7780     3.3860     0.6840 h1         1 ITP       0.042200
     22 H2           1.8930     1.8340     2.5020 h1         1 ITP       0.050700
     23 HO2          3.5470     0.1440     2.2520 ho         1 ITP       0.438000
     24 H3           0.7460     1.0610     0.5630 h1         1 ITP       0.042200
     25 H4           3.3810    -0.0250    -0.5000 h1         1 ITP       0.021200
     26 HO4          1.0300    -0.8940    -0.9920 ho         1 ITP       0.597500
     27 H5           1.7480     2.3270    -1.5130 h1         1 ITP       0.024700
     28 HO5          3.7130     2.5110    -2.8000 ho         1 ITP       0.422000
     29 H6           4.4740     2.2670    -0.1650 h1         1 ITP       0.021200
     30 HO6          3.4430     4.7420    -0.5500 ho         1 ITP       0.597500
@<TRIPOS>BOND
     1     1     2 1   
     2     1     3 1   
     3     1    11 1   
     4     1    21 1   
     5     2    13 1   
     6     3     4 1   
     7     3     5 1   
     8     3    22 1   
     9     4    23 1   
    10     5     6 1   
    11     5     7 1   
    12     5    24 1   
    13     6    17 1   
    14     7     8 1   
    15     7     9 1   
    16     7    25 1   
    17     8    26 1   
    18     9    10 1   
    19     9    11 1   
    20     9    27 1   
    21    10    28 1   
    22    11    12 1   
    23    11    29 1   
    24    12    30 1   
    25    13    14 1   
    26    13    15 1   
    27    13    16 1   
    28    17    18 1   
    29    17    19 1   
    30    17    20 1   
@<TRIPOS>SUBSTRUCTURE
     1 ITP         1 TEMP              0 ****  ****    0 ROOT
