@<TRIPOS>MOLECULE
ITP
   30    30     1     0     0
SMALL
No Charge or Current Charge


@<TRIPOS>ATOM
      1 C1           2.7460     2.9940     0.9610 c6         1 ITP       0.191300
      2 O1           3.4410     3.9320     1.8250 os         1 ITP      -0.607400
      3 C2           2.5400     1.6160     1.6760 c6         1 ITP       0.157300
      4 O2           3.7730     1.0180     2.1380 oh         1 ITP      -0.690000
      5 C3           1.7630     0.6080     0.7750 c6         1 ITP       0.191300
      6 O3           1.6540    -0.6570     1.4790 os         1 ITP      -0.607400
      7 C4           2.4170     0.4410    -0.6530 c6         1 ITP       0.157800
      8 O4           1.6550    -0.4540    -1.5090 oh         1 ITP      -0.863000
      9 C5           2.6110     1.8470    -1.3320 c6         1 ITP       0.144300
     10 O5           3.2790     1.7650    -2.6060 oh         1 ITP      -0.699000
     11 C6           3.4520     2.8060    -0.4310 c6         1 ITP       0.157800
     12 O6           3.6950     4.0460    -1.1480 oh         1 ITP      -0.863000
     13 P1           3.0550     5.4890     1.7820 p5         1 ITP       1.306900
     14 OP1          3.9540     6.2410     2.6960 o          1 ITP      -0.923667
     15 OP2          1.6410     5.6680     2.2020 o          1 ITP      -0.923667
     16 OP3          3.2460     5.9600     0.3860 o          1 ITP      -0.923667
     17 P3           0.3210    -1.5380     1.3400 p5         1 ITP       1.306900
     18 O10          0.4900    -2.8000     2.1070 o          1 ITP      -0.923667
     19 O11         -0.8410    -0.7760     1.8660 o          1 ITP      -0.923667
     20 O12          0.1340    -1.8430    -0.1010 o          1 ITP      -0.923667
     21 H1           1.7410     3.3950     0.7610 h1         1 ITP       0.042200
     22 H2           1.9000     1.8100     2.5490 h1         1 ITP       0.050700
     23 HO2          3.5390     0.0750     2.2940 ho         1 ITP       0.438000
     24 H3           0.7520     1.0190     0.6310 h1         1 ITP       0.042200
     25 H4           3.4180     0.0110    -0.4990 h1         1 ITP       0.021200
     26 HO4          1.0570    -1.0240    -0.8930 ho         1 ITP       0.597500
     27 H5           1.6170     2.3000    -1.4700 h1         1 ITP       0.024700
     28 HO5          3.7090     2.6510    -2.6700 ho         1 ITP       0.422000
     29 H6           4.4200     2.3180    -0.2390 h1         1 ITP       0.021200
     30 HO6          3.5200     4.8150    -0.4850 ho         1 ITP       0.597500
@<TRIPOS>BOND
     1     1     2 1   
     2     1     3 1   
     3     1    11 1   
     4     1    21 1   
     5     2    13 1   
     6     3     4 1   
     7     3     5 1   
     8     3    22 1   
     9     4    23 1   
    10     5     6 1   
    11     5     7 1   
    12     5    24 1   
    13     6    17 1   
    14     7     8 1   
    15     7     9 1   
    16     7    25 1   
    17     8    26 1   
    18     9    10 1   
    19     9    11 1   
    20     9    27 1   
    21    10    28 1   
    22    11    12 1   
    23    11    29 1   
    24    12    30 1   
    25    13    14 1   
    26    13    15 1   
    27    13    16 1   
    28    17    18 1   
    29    17    19 1   
    30    17    20 1   
@<TRIPOS>SUBSTRUCTURE
     1 ITP         1 TEMP              0 ****  ****    0 ROOT
