@<TRIPOS>MOLECULE
ITR
   24    25     1     0     0
SMALL
No Charge or Current Charge


@<TRIPOS>ATOM
      1 N            0.0800    -1.5030     1.6050 n2         1 ITR      -0.745100
      2 CA           0.0240    -0.2780     2.0660 ce         1 ITR       0.328300
      3 CB          -0.4540     0.8690     1.1770 c3         1 ITR      -0.110500
      4 CG          -0.8440     0.4910    -0.2320 cc         1 ITR      -0.107400
      5 CD1         -2.1280     0.2820    -0.7260 cd         1 ITR      -0.182100
      6 NE1         -2.0600    -0.0650    -2.0980 na         1 ITR      -0.235700
      7 CE2         -0.7170    -0.0650    -2.4230 ca         1 ITR      -0.051200
      8 CZ2         -0.1340    -0.3500    -3.6660 ca         1 ITR      -0.146000
      9 CH2          1.2720    -0.2910    -3.7710 ca         1 ITR      -0.099000
     10 CZ3          2.0580     0.0470    -2.6440 ca         1 ITR      -0.161000
     11 CE3          1.4440     0.3300    -1.4050 ca         1 ITR      -0.035000
     12 CD2          0.0440     0.2630    -1.3360 ca         1 ITR      -0.095800
     13 C            0.4330     0.0640     3.5250 c          1 ITR       0.626700
     14 O            0.3610     1.2280     3.9080 o          1 ITR      -0.707500
     15 OXT          0.8220    -0.8290     4.2750 o          1 ITR      -0.707500
     16 HN          -0.2140    -1.4910     0.6190 hn         1 ITR       0.323400
     17 HB1         -1.3090     1.3570     1.6590 hc         1 ITR       0.068200
     18 HB2          0.3280     1.6360     1.1320 hc         1 ITR       0.068200
     19 HD1         -3.0790     0.3550    -0.2030 h4         1 ITR       0.208000
     20 HE1         -2.8380    -0.2730    -2.7170 hn         1 ITR       0.335000
     21 HZ2         -0.7470    -0.6100    -4.5250 ha         1 ITR       0.098000
     22 HH2          1.7530    -0.5070    -4.7220 ha         1 ITR       0.094000
     23 HZ3          3.1410     0.0900    -2.7320 ha         1 ITR       0.102000
     24 HE3          2.0380     0.5890    -0.5320 ha         1 ITR       0.131000
@<TRIPOS>BOND
     1     1     2 2   
     2     1    16 1   
     3     2     3 1   
     4     2    13 1   
     5     3     4 1   
     6     3    17 1   
     7     3    18 1   
     8     4     5 2   
     9     4    12 1   
    10     5     6 1   
    11     5    19 1   
    12     6     7 1   
    13     6    20 1   
    14     7     8 ar  
    15     7    12 ar  
    16     8     9 ar  
    17     8    21 1   
    18     9    10 ar  
    19     9    22 1   
    20    10    11 ar  
    21    10    23 1   
    22    11    12 ar  
    23    11    24 1   
    24    13    14 1   
    25    13    15 1   
@<TRIPOS>SUBSTRUCTURE
     1 ITR         1 TEMP              0 ****  ****    0 ROOT
