@<TRIPOS>MOLECULE
ITR
   24    25     1     0     0
SMALL
abcg2


@<TRIPOS>ATOM
      1 N            0.1840    -1.4650     1.6150 n2         1 ITR      -0.745100
      2 CA           0.0430    -0.2730     2.0160 ce         1 ITR       0.328300
      3 CB          -0.5220     0.8640     1.1880 c3         1 ITR      -0.110500
      4 CG          -0.8640     0.5020    -0.2160 cc         1 ITR      -0.107400
      5 CD1         -2.1120     0.3110    -0.7400 cd         1 ITR      -0.182100
      6 NE1         -2.0250    -0.0180    -2.0630 na         1 ITR      -0.235700
      7 CE2         -0.7130    -0.0550    -2.4340 ca         1 ITR      -0.051200
      8 CZ2         -0.1270    -0.3430    -3.6660 ca         1 ITR      -0.146000
      9 CH2          1.2520    -0.3030    -3.7390 ca         1 ITR      -0.099000
     10 CZ3          2.0350     0.0170    -2.6170 ca         1 ITR      -0.161000
     11 CE3          1.4500     0.2990    -1.3980 ca         1 ITR      -0.035000
     12 CD2          0.0540     0.2680    -1.2930 ca         1 ITR      -0.095800
     13 C            0.4570     0.0770     3.4590 c          1 ITR       0.626700
     14 O            0.3350     1.2770     3.7750 o          1 ITR      -0.707500
     15 OXT          0.8650    -0.8530     4.1710 o          1 ITR      -0.707500
     16 HN          -0.1320    -1.5520     0.6490 hn         1 ITR       0.323400
     17 HB1         -1.4070     1.2490     1.7020 hc         1 ITR       0.068200
     18 HB2          0.1960     1.6890     1.2070 hc         1 ITR       0.068200
     19 HD1         -3.0740     0.3950    -0.2580 h4         1 ITR       0.208000
     20 HE1         -2.8110    -0.2040    -2.6630 hn         1 ITR       0.335000
     21 HZ2         -0.7270    -0.5930    -4.5320 ha         1 ITR       0.098000
     22 HH2          1.7400    -0.5240    -4.6800 ha         1 ITR       0.094000
     23 HZ3          3.1130     0.0360    -2.7130 ha         1 ITR       0.102000
     24 HE3          2.0630     0.5390    -0.5370 ha         1 ITR       0.131000
@<TRIPOS>BOND
     1     1     2 2   
     2     1    16 1   
     3     2     3 1   
     4     2    13 1   
     5     3     4 1   
     6     3    17 1   
     7     3    18 1   
     8     4     5 2   
     9     4    12 1   
    10     5     6 1   
    11     5    19 1   
    12     6     7 1   
    13     6    20 1   
    14     7     8 ar  
    15     7    12 ar  
    16     8     9 ar  
    17     8    21 1   
    18     9    10 ar  
    19     9    22 1   
    20    10    11 ar  
    21    10    23 1   
    22    11    12 ar  
    23    11    24 1   
    24    13    14 1   
    25    13    15 1   
@<TRIPOS>SUBSTRUCTURE
     1 ITR         1 TEMP              0 ****  ****    0 ROOT
