@<TRIPOS>MOLECULE
ITU
   14    13     1     0     0
SMALL
No Charge or Current Charge


@<TRIPOS>ATOM
      1 C1          -0.0360    -0.0060     2.9070 c3         1 ITU      -0.087100
      2 C2           0.6160     0.0110     1.5140 c3         1 ITU       0.077600
      3 S           -0.6790     0.0980     0.1970 ss         1 ITU      -0.338200
      4 C3           0.2880     0.1060    -1.2860 c2         1 ITU       0.660100
      5 N1          -0.4750     0.1710    -2.3850 nv         1 ITU      -1.062200
      6 N2           1.5440     0.0560    -1.3360 n2         1 ITU      -0.849100
      7 H11         -0.6950    -0.8760     3.0140 hc         1 ITU       0.045033
      8 H12          0.7320    -0.0570     3.6870 hc         1 ITU       0.045033
      9 H13         -0.6290     0.9020     3.0660 hc         1 ITU       0.045033
     10 H21          1.2800     0.8800     1.4260 h1         1 ITU       0.077200
     11 H22          1.2140    -0.8990     1.3730 h1         1 ITU       0.077200
     12 HN11        -0.1410    -0.4020    -3.1510 hn         1 ITU       0.465000
     13 HN12        -1.4620     0.0600    -2.1870 hn         1 ITU       0.465000
     14 HN2          1.8200     0.1150    -2.3230 hn         1 ITU       0.379400
@<TRIPOS>BOND
     1     1     2 1   
     2     1     7 1   
     3     1     8 1   
     4     1     9 1   
     5     2     3 1   
     6     2    10 1   
     7     2    11 1   
     8     3     4 1   
     9     4     5 1   
    10     4     6 2   
    11     5    12 1   
    12     5    13 1   
    13     6    14 1   
@<TRIPOS>SUBSTRUCTURE
     1 ITU         1 TEMP              0 ****  ****    0 ROOT
