@<TRIPOS>MOLECULE
ITU
   14    13     1     0     0
SMALL
bcc


@<TRIPOS>ATOM
      1 C1          -0.0230     0.0150     2.8770 c3         1 ITU      -0.087100
      2 C2           0.6270     0.0050     1.5030 c3         1 ITU       0.029700
      3 S           -0.6770     0.0870     0.2460 ss         1 ITU      -0.290300
      4 C3           0.2570     0.0650    -1.2620 c2         1 ITU       0.660100
      5 N1          -0.5530     0.1510    -2.3560 nv         1 ITU      -0.951800
      6 N2           1.5270     0.0290    -1.2300 n2         1 ITU      -0.849100
      7 H11         -0.6880    -0.8380     3.0150 hc         1 ITU       0.045033
      8 H12          0.7490    -0.0370     3.6440 hc         1 ITU       0.045033
      9 H13         -0.5980     0.9260     3.0440 hc         1 ITU       0.045033
     10 H21          1.2920     0.8570     1.3750 h1         1 ITU       0.077200
     11 H22          1.2090    -0.9030     1.3490 h1         1 ITU       0.077200
     12 HN11        -0.1430    -0.0820    -3.2470 hn         1 ITU       0.409800
     13 HN12        -1.5160    -0.1320    -2.2710 hn         1 ITU       0.409800
     14 HN2          1.9140     0.0170    -2.1700 hn         1 ITU       0.379400
@<TRIPOS>BOND
     1     1     2 1   
     2     1     7 1   
     3     1     8 1   
     4     1     9 1   
     5     2     3 1   
     6     2    10 1   
     7     2    11 1   
     8     3     4 1   
     9     4     5 1   
    10     4     6 2   
    11     5    12 1   
    12     5    13 1   
    13     6    14 1   
@<TRIPOS>SUBSTRUCTURE
     1 ITU         1 TEMP              0 ****  ****    0 ROOT
