@<TRIPOS>MOLECULE
ITW
   25    26     1     0     0
SMALL
bcc


@<TRIPOS>ATOM
      1 O01          2.4180    -1.6230     1.2970 o          1 ITW      -0.835300
      2 C02          2.6940    -1.0400     0.2270 c          1 ITW       0.918800
      3 O03          3.2640    -1.5430    -0.7590 o          1 ITW      -0.835300
      4 C04          2.3130     0.4360     0.1410 ce         1 ITW      -0.172400
      5 C05          2.8360     1.2120    -0.8070 c2         1 ITW      -0.244000
      6 C06          1.3560     1.0100     1.1630 c3         1 ITW       0.028000
      7 C07         -0.0350     1.1670     0.6310 cc         1 ITW      -0.074400
      8 C08         -0.6520     2.3430     0.3110 cd         1 ITW      -0.159100
      9 N09         -1.9070     2.1020    -0.1840 na         1 ITW      -0.190400
     10 C10         -2.1350     0.7590    -0.1920 ca         1 ITW      -0.051200
     11 C11         -3.2540     0.0340    -0.5990 ca         1 ITW      -0.180000
     12 C12         -3.1980    -1.3430    -0.4870 ca         1 ITW      -0.115000
     13 C13         -2.0560    -1.9880     0.0190 ca         1 ITW      -0.188000
     14 C14         -0.9490    -1.2660     0.4200 ca         1 ITW      -0.036000
     15 C15         -0.9740     0.1310     0.3160 ca         1 ITW      -0.088800
     16 H11         -4.1350     0.5280    -0.9880 ha         1 ITW       0.110000
     17 H12         -4.0500    -1.9350    -0.7960 ha         1 ITW       0.107000
     18 H13         -2.0500    -3.0670     0.0940 ha         1 ITW       0.121000
     19 H14         -0.0700    -1.7650     0.8100 ha         1 ITW       0.186000
     20 H05          2.6040     2.2690    -0.8690 ha         1 ITW       0.091000
     21 H05A         3.5090     0.8170    -1.5560 ha         1 ITW       0.091000
     22 H06          1.3490     0.3690     2.0450 hc         1 ITW       0.045200
     23 H06A         1.7130     1.9910     1.4850 hc         1 ITW       0.045200
     24 H08         -0.2830     3.3530     0.4000 h4         1 ITW       0.147000
     25 HN09        -2.5600     2.8120    -0.4700 hn         1 ITW       0.279700
@<TRIPOS>BOND
     1     1     2 1   
     2     2     3 1   
     3     2     4 1   
     4     4     5 2   
     5     4     6 1   
     6     5    20 1   
     7     5    21 1   
     8     6     7 1   
     9     6    22 1   
    10     6    23 1   
    11     7     8 2   
    12     7    15 1   
    13     8     9 1   
    14     8    24 1   
    15     9    10 1   
    16     9    25 1   
    17    10    11 ar  
    18    10    15 ar  
    19    11    12 ar  
    20    11    16 1   
    21    12    13 ar  
    22    12    17 1   
    23    13    14 ar  
    24    13    18 1   
    25    14    15 ar  
    26    14    19 1   
@<TRIPOS>SUBSTRUCTURE
     1 ITW         1 TEMP              0 ****  ****    0 ROOT
