@<TRIPOS>MOLECULE
ITW
   25    26     1     0     0
SMALL
No Charge or Current Charge


@<TRIPOS>ATOM
      1 O01          3.8380    -0.3470     1.9690 o          1 ITW      -0.730000
      2 C02          3.6840    -0.2900     0.7570 c          1 ITW       0.708200
      3 O03          4.5560    -0.6400    -0.0280 o          1 ITW      -0.730000
      4 C04          2.3690     0.2390     0.2030 ce         1 ITW      -0.172400
      5 C05          2.1360     0.3380    -1.1360 c2         1 ITW      -0.344000
      6 C06          1.3170     0.6480     1.2430 c3         1 ITW       0.028000
      7 C07         -0.0420     1.0400     0.7140 cc         1 ITW      -0.074400
      8 C08         -0.5690     2.3230     0.5980 cd         1 ITW      -0.209100
      9 N09         -1.8810     2.2550     0.0660 na         1 ITW      -0.240700
     10 C10         -2.1370     0.9130    -0.1380 ca         1 ITW      -0.051200
     11 C11         -3.3020     0.3300    -0.6550 ca         1 ITW      -0.162000
     12 C12         -3.3440    -1.0750    -0.7830 ca         1 ITW      -0.097000
     13 C13         -2.2310    -1.8600    -0.3990 ca         1 ITW      -0.170000
     14 C14         -1.0700    -1.2460     0.1180 ca         1 ITW      -0.018000
     15 C15         -1.0650     0.1530     0.2360 ca         1 ITW      -0.088800
     16 H11         -4.1520     0.9410    -0.9500 ha         1 ITW       0.092000
     17 H12         -4.2350    -1.5560    -1.1820 ha         1 ITW       0.089000
     18 H13         -2.2690    -2.9410    -0.5040 ha         1 ITW       0.103000
     19 H14         -0.2050    -1.8360     0.4130 ha         1 ITW       0.168000
     20 H05          1.1980     0.7170    -1.5410 ha         1 ITW       0.141000
     21 H05A         2.8850     0.0440    -1.8710 ha         1 ITW       0.141000
     22 H06          1.1730    -0.1720     1.9570 hc         1 ITW       0.045200
     23 H06A         1.7090     1.4820     1.8370 hc         1 ITW       0.045200
     24 H08         -0.1070     3.2720     0.8560 h4         1 ITW       0.197000
     25 HN09        -2.5070     3.0320    -0.1270 hn         1 ITW       0.330000
@<TRIPOS>BOND
     1     1     2 1   
     2     2     3 1   
     3     2     4 1   
     4     4     5 2   
     5     4     6 1   
     6     5    20 1   
     7     5    21 1   
     8     6     7 1   
     9     6    22 1   
    10     6    23 1   
    11     7     8 2   
    12     7    15 1   
    13     8     9 1   
    14     8    24 1   
    15     9    10 1   
    16     9    25 1   
    17    10    11 ar  
    18    10    15 ar  
    19    11    12 ar  
    20    11    16 1   
    21    12    13 ar  
    22    12    17 1   
    23    13    14 ar  
    24    13    18 1   
    25    14    15 ar  
    26    14    19 1   
@<TRIPOS>SUBSTRUCTURE
     1 ITW         1 TEMP              0 ****  ****    0 ROOT
