@<TRIPOS>MOLECULE
ITZ
   27    27     1     0     0
SMALL
No Charge or Current Charge


@<TRIPOS>ATOM
      1 N          -27.1620   -27.9230    29.5220 n8         1 ITZ      -0.892800
      2 CA         -28.0670   -27.1760    28.5980 c3         1 ITZ       0.151200
      3 CB         -27.6350   -27.3950    27.1090 c3         1 ITZ      -0.043700
      4 CG1        -28.3690   -26.4610    26.1030 c3         1 ITZ      -0.076400
      5 CG2        -27.7550   -28.8740    26.6510 c3         1 ITZ      -0.084100
      6 CD1        -28.1320   -24.9520    26.3260 c3         1 ITZ      -0.086100
      7 CB1        -29.5530   -27.4570    28.8630 cc         1 ITZ       0.368700
      8 NG1        -30.0370   -28.6600    29.1480 nd         1 ITZ      -0.607000
      9 SG1        -30.7080   -26.1490    28.8930 ss         1 ITZ      -0.345300
     10 CD3        -31.4270   -28.6070    29.3760 cd         1 ITZ       0.307800
     11 CD2        -31.9380   -27.3250    29.2680 cc         1 ITZ      -0.164400
     12 CJ         -32.3630   -29.7760    29.7160 c          1 ITZ       0.841100
     13 O          -33.5640   -29.5660    29.8890 o          1 ITZ      -0.807300
     14 H1         -27.4170   -27.6950    30.4880 hn         1 ITZ       0.352300
     15 H2         -27.3880   -28.9190    29.4430 hn         1 ITZ       0.352300
     16 HA         -27.9020   -26.1160    28.8290 h1         1 ITZ       0.047700
     17 HB         -26.5690   -27.1390    27.0480 hc         1 ITZ       0.042700
     18 HG12       -29.4470   -26.6640    26.1240 hc         1 ITZ       0.041200
     19 HG11       -28.0330   -26.7050    25.0880 hc         1 ITZ       0.041200
     20 HG23       -27.1970   -29.5450    27.3140 hc         1 ITZ       0.036700
     21 HG21       -28.8020   -29.1980    26.6310 hc         1 ITZ       0.036700
     22 HG22       -27.3470   -28.9970    25.6400 hc         1 ITZ       0.036700
     23 HD11       -28.6000   -24.3730    25.5210 hc         1 ITZ       0.025700
     24 HD12       -28.5640   -24.6130    27.2740 hc         1 ITZ       0.025700
     25 HD13       -27.0590   -24.7240    26.3300 hc         1 ITZ       0.025700
     26 HQ         -32.9670   -27.0100    29.3960 h4         1 ITZ       0.181000
     27 OXT        -31.9070   -30.9160    29.8130 o          1 ITZ      -0.807300
@<TRIPOS>BOND
     1     1     2 1   
     2     1    14 1   
     3     1    15 1   
     4     2     3 1   
     5     2     7 1   
     6     2    16 1   
     7     3     4 1   
     8     3     5 1   
     9     3    17 1   
    10     4     6 1   
    11     4    18 1   
    12     4    19 1   
    13     5    20 1   
    14     5    21 1   
    15     5    22 1   
    16     6    23 1   
    17     6    24 1   
    18     6    25 1   
    19     7     8 2   
    20     7     9 1   
    21     8    10 1   
    22     9    11 1   
    23    10    11 2   
    24    10    12 1   
    25    11    26 1   
    26    12    13 1   
    27    12    27 1   
@<TRIPOS>SUBSTRUCTURE
     1 ITZ         1 TEMP              0 ****  ****    0 ROOT
