@<TRIPOS>MOLECULE
ITZ
   27    27     1     0     0
SMALL
bcc


@<TRIPOS>ATOM
      1 N          -27.2070   -27.9720    29.4720 n8         1 ITZ      -0.892800
      2 CA         -28.0640   -27.1850    28.6020 c3         1 ITZ       0.151200
      3 CB         -27.6790   -27.4180    27.1240 c3         1 ITZ      -0.043700
      4 CG1        -28.3870   -26.4760    26.1480 c3         1 ITZ      -0.076400
      5 CG2        -27.8610   -28.8670    26.6830 c3         1 ITZ      -0.084100
      6 CD1        -28.1530   -24.9920    26.4010 c3         1 ITZ      -0.086100
      7 CB1        -29.5330   -27.4290    28.8570 cc         1 ITZ       0.368700
      8 NG1        -30.0370   -28.5790    29.1610 nd         1 ITZ      -0.607000
      9 SG1        -30.7120   -26.1610    28.7680 ss         1 ITZ      -0.345300
     10 CD3        -31.3960   -28.5280    29.3300 cd         1 ITZ       0.307800
     11 CD2        -31.9370   -27.2900    29.1540 cc         1 ITZ      -0.164400
     12 CJ         -32.2030   -29.7610    29.6980 c          1 ITZ       0.841100
     13 O          -33.4330   -29.5870    29.7970 o          1 ITZ      -0.807300
     14 H1         -27.3470   -27.6790    30.4310 hn         1 ITZ       0.352300
     15 H2         -27.4920   -28.9440    29.4420 hn         1 ITZ       0.352300
     16 HA         -27.8570   -26.1350    28.8270 h1         1 ITZ       0.047700
     17 HB         -26.6080   -27.1870    27.0800 hc         1 ITZ       0.042700
     18 HG12       -29.4610   -26.6880    26.1330 hc         1 ITZ       0.041200
     19 HG11       -28.0270   -26.7180    25.1440 hc         1 ITZ       0.041200
     20 HG23       -27.3160   -29.5680    27.3170 hc         1 ITZ       0.036700
     21 HG21       -28.9110   -29.1640    26.6820 hc         1 ITZ       0.036700
     22 HG22       -27.4830   -28.9970    25.6680 hc         1 ITZ       0.036700
     23 HD11       -28.5650   -24.3920    25.5890 hc         1 ITZ       0.025700
     24 HD12       -28.6190   -24.6400    27.3220 hc         1 ITZ       0.025700
     25 HD13       -27.0870   -24.7670    26.4670 hc         1 ITZ       0.025700
     26 HQ         -32.9710   -26.9970    29.2360 h4         1 ITZ       0.181000
     27 OXT        -31.5620   -30.8120    29.8670 o          1 ITZ      -0.807300
@<TRIPOS>BOND
     1     1     2 1   
     2     1    14 1   
     3     1    15 1   
     4     2     3 1   
     5     2     7 1   
     6     2    16 1   
     7     3     4 1   
     8     3     5 1   
     9     3    17 1   
    10     4     6 1   
    11     4    18 1   
    12     4    19 1   
    13     5    20 1   
    14     5    21 1   
    15     5    22 1   
    16     6    23 1   
    17     6    24 1   
    18     6    25 1   
    19     7     8 2   
    20     7     9 1   
    21     8    10 1   
    22     9    11 1   
    23    10    11 2   
    24    10    12 1   
    25    11    26 1   
    26    12    13 1   
    27    12    27 1   
@<TRIPOS>SUBSTRUCTURE
     1 ITZ         1 TEMP              0 ****  ****    0 ROOT
