@<TRIPOS>MOLECULE
IU0
   27    29     1     0     0
SMALL
No Charge or Current Charge


@<TRIPOS>ATOM
      1 N1           9.0880     4.3980     6.3010 nu         1 IU0      -0.974200
      2 C4          10.0950     1.4890     6.3720 c6         1 IU0       0.122600
      3 C5          10.0210     2.6580     4.2270 c6         1 IU0       0.220600
      4 C6          10.8880     3.8170     4.7630 c6         1 IU0      -0.108400
      5 C7          10.5230     4.0200     6.2510 c6         1 IU0       0.240500
      6 C8           8.1260     3.8400     5.4530 ca         1 IU0       0.337000
      7 C10          7.5590     2.3930     3.5750 ca         1 IU0      -0.042000
      8 C1          10.8130     2.6990     7.0600 c6         1 IU0       0.108300
      9 C11          6.1980     2.6890     3.7670 ca         1 IU0      -0.168000
     10 C2           5.8010     3.5580     4.7970 ca         1 IU0      -0.058000
     11 C3           6.7680     4.1320     5.6410 ca         1 IU0      -0.194000
     12 C9           8.5280     2.9710     4.4160 ca         1 IU0      -0.201300
     13 O1          12.2390     2.4700     7.1530 oh         1 IU0      -0.712000
     14 O2          10.3680     1.4440     4.9440 os         1 IU0      -0.440000
     15 H1           8.7510     4.9950     7.0580 hn         1 IU0       0.481000
     16 H7          10.4320     0.5470     6.8260 h1         1 IU0       0.050700
     17 H8          10.2350     2.5090     3.1580 h1         1 IU0       0.082700
     18 H9          11.9540     3.5830     4.6490 hc         1 IU0       0.071200
     19 H10         10.6990     4.7350     4.1910 hc         1 IU0       0.071200
     20 H11         11.1400     4.8270     6.6750 h1         1 IU0       0.074700
     21 H12          7.8580     1.7160     2.7770 ha         1 IU0       0.111000
     22 H3          10.4000     2.8140     8.0730 h1         1 IU0       0.032700
     23 H13          5.4500     2.2430     3.1150 ha         1 IU0       0.115000
     24 H4           4.7470     3.7850     4.9440 ha         1 IU0       0.109000
     25 H5           6.4590     4.8000     6.4400 ha         1 IU0       0.109000
     26 H2          12.3660     1.6260     7.6440 ho         1 IU0       0.507000
     27 H6           9.0100     1.5490     6.5380 h1         1 IU0       0.050700
@<TRIPOS>BOND
     1     1     5 1   
     2     1     6 1   
     3     1    15 1   
     4     2     8 1   
     5     2    14 1   
     6     2    16 1   
     7     2    27 1   
     8     3     4 1   
     9     3    12 1   
    10     3    14 1   
    11     3    17 1   
    12     4     5 1   
    13     4    18 1   
    14     4    19 1   
    15     5     8 1   
    16     5    20 1   
    17     6    11 ar  
    18     6    12 ar  
    19     7     9 ar  
    20     7    12 ar  
    21     7    21 1   
    22     8    13 1   
    23     8    22 1   
    24     9    10 ar  
    25     9    23 1   
    26    10    11 ar  
    27    10    24 1   
    28    11    25 1   
    29    13    26 1   
@<TRIPOS>SUBSTRUCTURE
     1 IU0         1 TEMP              0 ****  ****    0 ROOT
