@<TRIPOS>MOLECULE
IU0
   27    29     1     0     0
SMALL
abcg2


@<TRIPOS>ATOM
      1 N1           9.0940     4.3680     6.3030 nu         1 IU0      -0.974200
      2 C4          10.1040     1.5160     6.3830 c6         1 IU0       0.122600
      3 C5           9.9950     2.6080     4.2780 c6         1 IU0       0.220600
      4 C6          10.8480     3.7670     4.7680 c6         1 IU0      -0.108400
      5 C7          10.4870     3.9940     6.2300 c6         1 IU0       0.240500
      6 C8           8.1520     3.8200     5.4740 ca         1 IU0       0.337000
      7 C10          7.5710     2.4450     3.5760 ca         1 IU0      -0.042000
      8 C1          10.7860     2.7150     7.0320 c6         1 IU0       0.108300
      9 C11          6.2260     2.7430     3.7350 ca         1 IU0      -0.168000
     10 C2           5.8470     3.5840     4.7780 ca         1 IU0      -0.058000
     11 C3           6.7910     4.1190     5.6360 ca         1 IU0      -0.194000
     12 C9           8.5380     2.9630     4.4280 ca         1 IU0      -0.201300
     13 O1          12.1900     2.5900     7.0750 oh         1 IU0      -0.712000
     14 O2          10.3320     1.4240     4.9940 os         1 IU0      -0.440000
     15 H1           8.7700     4.7660     7.1700 hn         1 IU0       0.481000
     16 H7          10.4800     0.5880     6.8240 h1         1 IU0       0.050700
     17 H8          10.2110     2.3810     3.2310 h1         1 IU0       0.082700
     18 H9          11.9090     3.5410     4.6620 hc         1 IU0       0.071200
     19 H10         10.6420     4.6650     4.1810 hc         1 IU0       0.071200
     20 H11         11.0750     4.8140     6.6500 h1         1 IU0       0.074700
     21 H12          7.8860     1.7930     2.7690 ha         1 IU0       0.111000
     22 H3          10.3690     2.8270     8.0440 h1         1 IU0       0.032700
     23 H13          5.4860     2.3310     3.0620 ha         1 IU0       0.115000
     24 H4           4.8030     3.8310     4.9230 ha         1 IU0       0.109000
     25 H5           6.4830     4.7770     6.4410 ha         1 IU0       0.109000
     26 H2          12.4130     1.7830     7.5500 ho         1 IU0       0.507000
     27 H6           9.0300     1.5540     6.6090 h1         1 IU0       0.050700
@<TRIPOS>BOND
     1     1     5 1   
     2     1     6 1   
     3     1    15 1   
     4     2     8 1   
     5     2    14 1   
     6     2    16 1   
     7     2    27 1   
     8     3     4 1   
     9     3    12 1   
    10     3    14 1   
    11     3    17 1   
    12     4     5 1   
    13     4    18 1   
    14     4    19 1   
    15     5     8 1   
    16     5    20 1   
    17     6    11 ar  
    18     6    12 ar  
    19     7     9 ar  
    20     7    12 ar  
    21     7    21 1   
    22     8    13 1   
    23     8    22 1   
    24     9    10 ar  
    25     9    23 1   
    26    10    11 ar  
    27    10    24 1   
    28    11    25 1   
    29    13    26 1   
@<TRIPOS>SUBSTRUCTURE
     1 IU0         1 TEMP              0 ****  ****    0 ROOT
