@<TRIPOS>MOLECULE
IU1
   43    45     1     0     0
SMALL
No Charge or Current Charge


@<TRIPOS>ATOM
      1 O14         -2.1400    -1.7430     0.1590 o          1 IU1      -0.528100
      2 C13         -1.9740    -0.5280     0.0720 c          1 IU1       0.611700
      3 C15         -3.1570     0.4410    -0.2500 c3         1 IU1       0.071800
      4 N16         -4.5520    -0.1040    -0.3280 n3         1 IU1      -0.695600
      5 C20         -5.1070    -0.6290     0.9380 c5         1 IU1       0.157300
      6 C19         -6.5590    -0.9850     0.5210 c5         1 IU1      -0.078900
      7 C18         -6.8740     0.0160    -0.6370 c5         1 IU1      -0.078900
      8 C17         -5.5810     0.8640    -0.7560 c5         1 IU1       0.157300
      9 C11         -0.6300     0.0980     0.2630 cc         1 IU1      -0.256600
     10 C10         -0.3430     1.4870     0.1370 cc         1 IU1      -0.140000
     11 C9           0.9950     1.7010     0.3230 cd         1 IU1      -0.157300
     12 C21          1.7970     2.9730     0.2070 c3         1 IU1      -0.023800
     13 C12          0.5470    -0.5680     0.5420 cd         1 IU1      -0.059300
     14 C22          0.8280    -2.0450     0.7110 c3         1 IU1      -0.040800
     15 N8           1.5000     0.4490     0.6790 na         1 IU1       0.106200
     16 C5           2.7920     0.1640     0.2320 ca         1 IU1      -0.032200
     17 C4           3.0430    -0.0740    -1.1370 ca         1 IU1      -0.074500
     18 C3           4.3490    -0.3590    -1.5750 ca         1 IU1      -0.148500
     19 C6           3.8550     0.1160     1.1550 ca         1 IU1      -0.074500
     20 C7           5.1600    -0.1690     0.7140 ca         1 IU1      -0.148500
     21 C2           5.4020    -0.4050    -0.6490 ca         1 IU1       0.181000
     22 F1           6.6560    -0.6790    -1.0700 f          1 IU1      -0.171000
     23 H1          -3.1230     1.2350     0.5070 h1         1 IU1       0.048200
     24 H2          -2.9010     0.9130    -1.2070 h1         1 IU1       0.048200
     25 H4          -4.5630    -1.5060     1.3140 h1         1 IU1       0.035700
     26 H5          -5.1000     0.1400     1.7250 h1         1 IU1       0.035700
     27 H6          -6.6220    -2.0200     0.1670 hc         1 IU1       0.045950
     28 H7          -7.2560    -0.8880     1.3610 hc         1 IU1       0.045950
     29 H8          -7.0770    -0.5210    -1.5700 hc         1 IU1       0.045950
     30 H9          -7.7500     0.6400    -0.4260 hc         1 IU1       0.045950
     31 H10         -5.6140     1.7350    -0.0850 h1         1 IU1       0.035700
     32 H11         -5.4180     1.2280    -1.7800 h1         1 IU1       0.035700
     33 H12         -1.0670     2.2550    -0.1240 ha         1 IU1       0.133000
     34 H13          2.5080     3.0700     1.0360 hc         1 IU1       0.047033
     35 H14          2.3660     2.9950    -0.7290 hc         1 IU1       0.047033
     36 H15          1.1440     3.8540     0.2230 hc         1 IU1       0.047033
     37 H16          0.7000    -2.5780    -0.2380 hc         1 IU1       0.059700
     38 H17          1.8500    -2.2320     1.0610 hc         1 IU1       0.059700
     39 H18          0.1490    -2.4940     1.4450 hc         1 IU1       0.059700
     40 H19          2.2270    -0.0360    -1.8550 ha         1 IU1       0.134500
     41 H20          4.5460    -0.5420    -2.6280 ha         1 IU1       0.139500
     42 H21          3.6690     0.3000     2.2110 ha         1 IU1       0.134500
     43 H22          5.9820    -0.2070     1.4240 ha         1 IU1       0.139500
@<TRIPOS>BOND
     1     1     2 2   
     2     2     3 1   
     3     2     9 1   
     4     3     4 1   
     5     3    23 1   
     6     3    24 1   
     7     4     5 1   
     8     4     8 1   
     9     5     6 1   
    10     5    25 1   
    11     5    26 1   
    12     6     7 1   
    13     6    27 1   
    14     6    28 1   
    15     7     8 1   
    16     7    29 1   
    17     7    30 1   
    18     8    31 1   
    19     8    32 1   
    20     9    10 1   
    21     9    13 2   
    22    10    11 2   
    23    10    33 1   
    24    11    12 1   
    25    11    15 1   
    26    12    34 1   
    27    12    35 1   
    28    12    36 1   
    29    13    14 1   
    30    13    15 1   
    31    14    37 1   
    32    14    38 1   
    33    14    39 1   
    34    15    16 1   
    35    16    17 ar  
    36    16    19 ar  
    37    17    18 ar  
    38    17    40 1   
    39    18    21 ar  
    40    18    41 1   
    41    19    20 ar  
    42    19    42 1   
    43    20    21 ar  
    44    20    43 1   
    45    21    22 1   
@<TRIPOS>SUBSTRUCTURE
     1 IU1         1 TEMP              0 ****  ****    0 ROOT
