@<TRIPOS>MOLECULE
IU1
   43    45     1     0     0
SMALL
bcc


@<TRIPOS>ATOM
      1 O14         -2.2940    -1.6420    -0.4890 o          1 IU1      -0.528100
      2 C13         -2.1040    -0.4460    -0.3600 c          1 IU1       0.611700
      3 C15         -3.2660     0.5330    -0.3310 c3         1 IU1       0.071800
      4 N16         -4.5500    -0.0990    -0.2390 n3         1 IU1      -0.695600
      5 C20         -4.8640    -0.6290     1.0770 c5         1 IU1       0.157300
      6 C19         -6.3590    -0.9410     0.9950 c5         1 IU1      -0.078900
      7 C18         -6.8880     0.0150    -0.0960 c5         1 IU1      -0.078900
      8 C17         -5.6530     0.8000    -0.5360 c5         1 IU1       0.157300
      9 C11         -0.7760     0.1440    -0.2440 cc         1 IU1      -0.256600
     10 C10         -0.4680     1.5400    -0.1840 cc         1 IU1      -0.158000
     11 C9           0.8820     1.6720    -0.0910 cd         1 IU1      -0.106600
     12 C21          1.7340     2.8890    -0.0210 c3         1 IU1      -0.023800
     13 C12          0.4300    -0.5410    -0.1790 cd         1 IU1      -0.008600
     14 C22          0.7450    -1.9940    -0.1810 c3         1 IU1      -0.040800
     15 N8           1.4150     0.3960    -0.0870 na         1 IU1       0.004800
     16 C5           2.8000     0.1080    -0.0040 ca         1 IU1      -0.032200
     17 C4           3.4820    -0.3390    -1.1270 ca         1 IU1      -0.092500
     18 C3           4.8370    -0.6220    -1.0530 ca         1 IU1      -0.166500
     19 C6           3.4720     0.2780     1.2000 ca         1 IU1      -0.092500
     20 C7           4.8290     0.0090     1.2840 ca         1 IU1      -0.166500
     21 C2           5.4860    -0.4390     0.1540 ca         1 IU1       0.145900
     22 F1           6.7970    -0.7030     0.2310 f          1 IU1      -0.135900
     23 H1          -3.1020     1.2670     0.4780 h1         1 IU1       0.048200
     24 H2          -3.2130     1.1100    -1.2630 h1         1 IU1       0.048200
     25 H4          -4.2590    -1.5040     1.3160 h1         1 IU1       0.035700
     26 H5          -4.6770     0.1260     1.8600 h1         1 IU1       0.035700
     27 H6          -6.5240    -1.9810     0.7100 hc         1 IU1       0.045950
     28 H7          -6.8480    -0.7900     1.9580 hc         1 IU1       0.045950
     29 H8          -7.3060    -0.5480    -0.9310 hc         1 IU1       0.045950
     30 H9          -7.6720     0.6770     0.2710 hc         1 IU1       0.045950
     31 H10         -5.5780     1.7380     0.0400 h1         1 IU1       0.035700
     32 H11         -5.6640     1.0690    -1.5950 h1         1 IU1       0.035700
     33 H12         -1.1660     2.3620    -0.2180 ha         1 IU1       0.151000
     34 H13          2.2950     2.9520     0.9120 hc         1 IU1       0.047033
     35 H14          2.4570     2.9310    -0.8380 hc         1 IU1       0.047033
     36 H15          1.1050     3.7750    -0.0880 hc         1 IU1       0.047033
     37 H16          1.0580    -2.3340    -1.1710 hc         1 IU1       0.059700
     38 H17          1.5560    -2.2250     0.5100 hc         1 IU1       0.059700
     39 H18         -0.1250    -2.5740     0.1040 hc         1 IU1       0.059700
     40 H19          2.9570    -0.4660    -2.0650 ha         1 IU1       0.152500
     41 H20          5.3780    -0.9720    -1.9220 ha         1 IU1       0.157500
     42 H21          2.9360     0.6190     2.0770 ha         1 IU1       0.152500
     43 H22          5.3620     0.1410     2.2160 ha         1 IU1       0.157500
@<TRIPOS>BOND
     1     1     2 2   
     2     2     3 1   
     3     2     9 1   
     4     3     4 1   
     5     3    23 1   
     6     3    24 1   
     7     4     5 1   
     8     4     8 1   
     9     5     6 1   
    10     5    25 1   
    11     5    26 1   
    12     6     7 1   
    13     6    27 1   
    14     6    28 1   
    15     7     8 1   
    16     7    29 1   
    17     7    30 1   
    18     8    31 1   
    19     8    32 1   
    20     9    10 1   
    21     9    13 2   
    22    10    11 2   
    23    10    33 1   
    24    11    12 1   
    25    11    15 1   
    26    12    34 1   
    27    12    35 1   
    28    12    36 1   
    29    13    14 1   
    30    13    15 1   
    31    14    37 1   
    32    14    38 1   
    33    14    39 1   
    34    15    16 1   
    35    16    17 ar  
    36    16    19 ar  
    37    17    18 ar  
    38    17    40 1   
    39    18    21 ar  
    40    18    41 1   
    41    19    20 ar  
    42    19    42 1   
    43    20    21 ar  
    44    20    43 1   
    45    21    22 1   
@<TRIPOS>SUBSTRUCTURE
     1 IU1         1 TEMP              0 ****  ****    0 ROOT
