@<TRIPOS>MOLECULE
IU2
   28    30     1     0     0
SMALL
abcg2


@<TRIPOS>ATOM
      1 C10        -23.5380    30.4450   -23.3620 ca         1 IU2       0.005800
      2 C13        -24.5380    32.7440   -22.1730 ca         1 IU2      -0.107000
      3 C15        -22.7330    31.1780   -22.4950 ca         1 IU2      -0.102000
      4 C02        -25.0600    26.3950   -23.9730 ca         1 IU2       0.283000
      5 C04        -23.0760    25.9010   -25.0110 ca         1 IU2       0.455900
      6 C06        -22.6440    23.6490   -25.9080 c3         1 IU2       0.223100
      7 C07        -22.6940    27.2390   -24.7640 ca         1 IU2      -0.102600
      8 C08        -23.6200    28.0430   -24.1090 ca         1 IU2       0.142500
      9 C11        -24.8400    30.8500   -23.6380 ca         1 IU2      -0.102000
     10 C12        -25.3380    31.9980   -23.0350 ca         1 IU2      -0.098000
     11 C14        -23.2350    32.3330   -21.9090 ca         1 IU2      -0.098000
     12 C16        -21.7670    29.1450   -24.5600 cc         1 IU2       0.414700
     13 N03        -24.2980    25.5070   -24.5920 nb         1 IU2      -0.281000
     14 N05        -22.2800    25.0280   -25.6330 nu         1 IU2      -0.909100
     15 N09        -23.0140    29.2750   -23.9790 na         1 IU2      -0.188100
     16 N17        -21.5420    27.9480   -25.0400 nd         1 IU2      -0.549100
     17 N18        -24.8340    27.6580   -23.6810 nb         1 IU2      -0.199000
     18 H131       -24.9300    33.6400   -21.7090 ha         1 IU2       0.119000
     19 H151       -21.7290    30.8400   -22.2740 ha         1 IU2       0.131000
     20 H062       -21.8070    23.1750   -26.4130 h1         1 IU2       0.048367
     21 H063       -22.8570    23.1080   -24.9850 h1         1 IU2       0.048367
     22 H061       -23.5250    23.5960   -26.5500 h1         1 IU2       0.048367
     23 H111       -25.4510    30.2750   -24.3200 ha         1 IU2       0.131000
     24 H121       -26.3510    32.3150   -23.2470 ha         1 IU2       0.120500
     25 H141       -22.6090    32.9050   -21.2360 ha         1 IU2       0.120500
     26 H161       -21.0870    29.9820   -24.6040 h5         1 IU2       0.072800
     27 H051       -21.3790    25.3600   -25.9340 hn         1 IU2       0.517000
     28 CL01       -26.6290    25.7820   -23.4590 cl         1 IU2      -0.145000
@<TRIPOS>BOND
     1     1     3 ar  
     2     1     9 ar  
     3     1    15 1   
     4     2    10 ar  
     5     2    11 ar  
     6     2    18 1   
     7     3    11 ar  
     8     3    19 1   
     9     4    13 ar  
    10     4    17 ar  
    11     4    28 1   
    12     5     7 ar  
    13     5    13 ar  
    14     5    14 1   
    15     6    14 1   
    16     6    20 1   
    17     6    21 1   
    18     6    22 1   
    19     7     8 ar  
    20     7    16 1   
    21     8    15 1   
    22     8    17 ar  
    23     9    10 ar  
    24     9    23 1   
    25    10    24 1   
    26    11    25 1   
    27    12    15 1   
    28    12    16 2   
    29    12    26 1   
    30    14    27 1   
@<TRIPOS>SUBSTRUCTURE
     1 IU2         1 TEMP              0 ****  ****    0 ROOT
