@<TRIPOS>MOLECULE
IU2
   28    30     1     0     0
SMALL
No Charge or Current Charge


@<TRIPOS>ATOM
      1 C10        -23.5500    30.4390   -23.4370 ca         1 IU2       0.005800
      2 C13        -24.4770    32.7490   -22.1090 ca         1 IU2      -0.107000
      3 C15        -22.7260    31.1030   -22.5050 ca         1 IU2      -0.102000
      4 C02        -25.1750    26.3420   -23.9520 ca         1 IU2       0.283000
      5 C04        -23.1640    25.9180   -24.9690 ca         1 IU2       0.455900
      6 C06        -22.5000    23.6040   -25.8770 c3         1 IU2       0.223100
      7 C07        -22.8100    27.2680   -24.7640 ca         1 IU2      -0.102600
      8 C08        -23.7200    28.0870   -24.1390 ca         1 IU2       0.142500
      9 C11        -24.8410    30.9400   -23.6980 ca         1 IU2      -0.102000
     10 C12        -25.3030    32.0910   -23.0360 ca         1 IU2      -0.098000
     11 C14        -23.1890    32.2540   -21.8430 ca         1 IU2      -0.098000
     12 C16        -21.8260    29.1960   -24.6650 cc         1 IU2       0.414700
     13 N03        -24.3590    25.4490   -24.5590 nb         1 IU2      -0.281000
     14 N05        -22.2890    25.0360   -25.5940 nu         1 IU2      -0.909100
     15 N09        -23.0950    29.2980   -24.0970 na         1 IU2      -0.188100
     16 N17        -21.6200    27.9370   -25.1060 nd         1 IU2      -0.549100
     17 N18        -24.9210    27.6490   -23.7150 nb         1 IU2      -0.199000
     18 H131       -24.8350    33.6390   -21.5970 ha         1 IU2       0.119000
     19 H151       -21.7300    30.7260   -22.2840 ha         1 IU2       0.131000
     20 H062       -21.6240    23.1770   -26.3830 h1         1 IU2       0.048367
     21 H063       -22.6660    23.0470   -24.9450 h1         1 IU2       0.048367
     22 H061       -23.3760    23.4640   -26.5260 h1         1 IU2       0.048367
     23 H111       -25.4860    30.4410   -24.4180 ha         1 IU2       0.131000
     24 H121       -26.3010    32.4740   -23.2430 ha         1 IU2       0.120500
     25 H141       -22.5500    32.7610   -21.1230 ha         1 IU2       0.120500
     26 H161       -21.1350    30.0280   -24.7230 h5         1 IU2       0.072800
     27 H051       -21.4020    25.4610   -25.8740 hn         1 IU2       0.517000
     28 Cl01       -26.7330    25.7370   -23.4140 cl         1 IU2      -0.145000
@<TRIPOS>BOND
     1     1     3 ar  
     2     1     9 ar  
     3     1    15 1   
     4     2    10 ar  
     5     2    11 ar  
     6     2    18 1   
     7     3    11 ar  
     8     3    19 1   
     9     4    13 ar  
    10     4    17 ar  
    11     4    28 1   
    12     5     7 ar  
    13     5    13 ar  
    14     5    14 1   
    15     6    14 1   
    16     6    20 1   
    17     6    21 1   
    18     6    22 1   
    19     7     8 ar  
    20     7    16 1   
    21     8    15 1   
    22     8    17 ar  
    23     9    10 ar  
    24     9    23 1   
    25    10    24 1   
    26    11    25 1   
    27    12    15 1   
    28    12    16 2   
    29    12    26 1   
    30    14    27 1   
@<TRIPOS>SUBSTRUCTURE
     1 IU2         1 TEMP              0 ****  ****    0 ROOT
