@<TRIPOS>MOLECULE
IU3
   34    36     1     0     0
SMALL
abcg2


@<TRIPOS>ATOM
      1 N01         38.1970    15.6380    96.6140 nv         1 IU3      -1.081000
      2 C02         39.5380    15.5800    96.9740 ca         1 IU3       0.261000
      3 C03         39.9740    16.1100    98.1970 ca         1 IU3      -0.204000
      4 C04         41.3060    15.9900    98.5700 ca         1 IU3      -0.085000
      5 C05         42.2270    15.3490    97.7510 ca         1 IU3      -0.142000
      6 C06         41.8060    14.8200    96.5240 ca         1 IU3      -0.011500
      7 C07         42.7610    14.1490    95.6400 cc         1 IU3       0.176500
      8 N08         42.3940    13.5120    94.4880 nc         1 IU3      -0.400000
      9 N09         43.4460    13.0100    93.9090 nd         1 IU3      -0.210800
     10 C10         44.1300    14.0220    95.7590 cd         1 IU3      -0.117000
     11 N11         44.5130    13.3140    94.6760 na         1 IU3       0.274000
     12 C12         45.8310    12.9110    94.2990 ca         1 IU3      -0.055200
     13 C13         46.2670    13.2370    93.0200 ca         1 IU3      -0.137000
     14 C14         47.5520    12.8800    92.6360 ca         1 IU3      -0.166000
     15 C15         48.3860    12.2380    93.5430 ca         1 IU3      -0.104000
     16 C16         47.9440    11.9050    94.8230 ca         1 IU3      -0.088600
     17 C17         48.8960    11.1610    95.7520 c          1 IU3       0.722600
     18 O18         50.0320    11.6730    95.9110 o          1 IU3      -0.724000
     19 O19         48.4780    10.0890    96.2540 o          1 IU3      -0.724000
     20 C20         46.6370    12.2290    95.2130 ca         1 IU3      -0.066600
     21 C21         46.1020    11.8650    96.5960 c          1 IU3       0.726600
     22 O22         45.2030    10.9940    96.6330 o          1 IU3      -0.716000
     23 O23         46.5930    12.4960    97.5620 o          1 IU3      -0.716000
     24 C24         40.4680    14.9410    96.1470 ca         1 IU3      -0.161000
     25 H1          37.6680    16.3840    97.0420 hn         1 IU3       0.429000
     26 H2          38.0140    15.5650    95.6240 hn         1 IU3       0.429000
     27 H3          39.2650    16.6120    98.8440 ha         1 IU3       0.087000
     28 H4          41.6300    16.4040    99.5170 ha         1 IU3       0.095000
     29 H5          43.2580    15.2580    98.0630 ha         1 IU3       0.132000
     30 H6          44.8370    14.3640    96.4920 h4         1 IU3       0.193000
     31 H7          45.6080    13.7720    92.3500 ha         1 IU3       0.086000
     32 H8          47.9060    13.1220    91.6420 ha         1 IU3       0.070000
     33 H9          49.3990    11.9840    93.2580 ha         1 IU3       0.102000
     34 H12         40.1410    14.5340    95.1990 ha         1 IU3       0.127000
@<TRIPOS>BOND
     1     1     2 1   
     2     1    25 1   
     3     1    26 1   
     4     2     3 ar  
     5     2    24 ar  
     6     3     4 ar  
     7     3    27 1   
     8     4     5 ar  
     9     4    28 1   
    10     5     6 ar  
    11     5    29 1   
    12     6     7 1   
    13     6    24 ar  
    14     7     8 1   
    15     7    10 2   
    16     8     9 2   
    17     9    11 1   
    18    10    11 1   
    19    10    30 1   
    20    11    12 1   
    21    12    13 ar  
    22    12    20 ar  
    23    13    14 ar  
    24    13    31 1   
    25    14    15 ar  
    26    14    32 1   
    27    15    16 ar  
    28    15    33 1   
    29    16    17 1   
    30    16    20 ar  
    31    17    18 1   
    32    17    19 1   
    33    20    21 1   
    34    21    22 1   
    35    21    23 1   
    36    24    34 1   
@<TRIPOS>SUBSTRUCTURE
     1 IU3         1 TEMP              0 ****  ****    0 ROOT
