@<TRIPOS>MOLECULE
IU3
   34    36     1     0     0
SMALL
No Charge or Current Charge


@<TRIPOS>ATOM
      1 N01         38.3120    15.8820    96.6220 nv         1 IU3      -1.081000
      2 C02         39.6310    15.7030    96.9370 ca         1 IU3       0.261000
      3 C03         40.1580    16.3130    98.0810 ca         1 IU3      -0.204000
      4 C04         41.5090    16.1290    98.4140 ca         1 IU3      -0.085000
      5 C05         42.3340    15.3390    97.5950 ca         1 IU3      -0.142000
      6 C06         41.8200    14.7280    96.4280 ca         1 IU3      -0.011500
      7 C07         42.6640    13.8790    95.5680 cc         1 IU3       0.176500
      8 N08         42.2030    13.0620    94.5640 nc         1 IU3      -0.400000
      9 N09         43.2450    12.5030    93.9930 nd         1 IU3      -0.210800
     10 C10         44.0240    13.8590    95.6660 cd         1 IU3      -0.117000
     11 N11         44.3360    12.9390    94.6990 na         1 IU3       0.274000
     12 C12         45.6850    12.7830    94.3720 ca         1 IU3      -0.055200
     13 C13         46.1690    13.3520    93.1780 ca         1 IU3      -0.137000
     14 C14         47.5240    13.2420    92.8380 ca         1 IU3      -0.166000
     15 C15         48.4060    12.5590    93.6880 ca         1 IU3      -0.104000
     16 C16         47.9430    11.9720    94.8840 ca         1 IU3      -0.088600
     17 C17         48.9170    11.2260    95.7680 c          1 IU3       0.722600
     18 O18         49.9610    11.7850    96.0750 o          1 IU3      -0.724000
     19 O19         48.6690    10.0630    96.0550 o          1 IU3      -0.724000
     20 C20         46.5710    12.0840    95.2330 ca         1 IU3      -0.066600
     21 C21         46.0680    11.4940    96.5310 c          1 IU3       0.726600
     22 O22         45.2550    10.5820    96.4790 o          1 IU3      -0.716000
     23 O23         46.4220    12.0260    97.5740 o          1 IU3      -0.716000
     24 C24         40.4530    14.9140    96.1190 ca         1 IU3      -0.161000
     25 H1          37.7500    16.5490    97.1480 hn         1 IU3       0.429000
     26 H2          37.9470    15.5490    95.7310 hn         1 IU3       0.429000
     27 H3          39.5260    16.9240    98.7200 ha         1 IU3       0.087000
     28 H4          41.9180    16.5960    99.3080 ha         1 IU3       0.095000
     29 H5          43.3730    15.2040    97.8840 ha         1 IU3       0.132000
     30 H6          44.7420    14.3750    96.2860 h4         1 IU3       0.193000
     31 H7          45.4930    13.8900    92.5160 ha         1 IU3       0.086000
     32 H8          47.8920    13.6870    91.9170 ha         1 IU3       0.070000
     33 H9          49.4560    12.4760    93.4150 ha         1 IU3       0.102000
     34 H12         40.0290    14.4460    95.2360 ha         1 IU3       0.127000
@<TRIPOS>BOND
     1     1     2 1   
     2     1    25 1   
     3     1    26 1   
     4     2     3 ar  
     5     2    24 ar  
     6     3     4 ar  
     7     3    27 1   
     8     4     5 ar  
     9     4    28 1   
    10     5     6 ar  
    11     5    29 1   
    12     6     7 1   
    13     6    24 ar  
    14     7     8 1   
    15     7    10 2   
    16     8     9 2   
    17     9    11 1   
    18    10    11 1   
    19    10    30 1   
    20    11    12 1   
    21    12    13 ar  
    22    12    20 ar  
    23    13    14 ar  
    24    13    31 1   
    25    14    15 ar  
    26    14    32 1   
    27    15    16 ar  
    28    15    33 1   
    29    16    17 1   
    30    16    20 ar  
    31    17    18 1   
    32    17    19 1   
    33    20    21 1   
    34    21    22 1   
    35    21    23 1   
    36    24    34 1   
@<TRIPOS>SUBSTRUCTURE
     1 IU3         1 TEMP              0 ****  ****    0 ROOT
