@<TRIPOS>MOLECULE
IU4
   38    40     1     0     0
SMALL
bcc


@<TRIPOS>ATOM
      1 C1          16.5270   -18.0630    -3.5110 c3         1 IU4      -0.182100
      2 C10         13.2110   -24.6700    -8.4270 cc         1 IU4      -0.224400
      3 C11         12.2590   -23.9210   -10.5340 cc         1 IU4       0.735300
      4 C12         11.4590   -22.5560   -12.3880 c6         1 IU4       0.193800
      5 C13         10.0550   -22.4960   -12.9610 c6         1 IU4       0.122900
      6 C14         10.6950   -24.6310   -13.8010 c6         1 IU4       0.122900
      7 C15         11.1800   -25.0190   -12.4170 c6         1 IU4       0.193800
      8 C2          16.1370   -19.4060    -4.0780 c          1 IU4       0.675100
      9 C3          14.9710   -20.3800    -6.0530 ca         1 IU4       0.079600
     10 C4          14.2210   -20.0130    -7.1730 ca         1 IU4      -0.177000
     11 C5          13.6810   -20.9680    -8.0140 ca         1 IU4      -0.076000
     12 C6          13.8630   -22.3290    -7.7690 ca         1 IU4      -0.148500
     13 C7          14.6150   -22.6860    -6.6510 ca         1 IU4      -0.076000
     14 C8          15.1630   -21.7400    -5.8000 ca         1 IU4      -0.177000
     15 C9          13.2790   -23.3330    -8.6660 cd         1 IU4       0.467800
     16 N1          15.4940   -19.3450    -5.2750 ns         1 IU4      -0.473100
     17 N2          12.7410   -22.9200    -9.8580 nd         1 IU4      -0.749000
     18 N3          11.6670   -23.8340   -11.7350 nh         1 IU4      -0.788300
     19 O1          16.3730   -20.4430    -3.4850 o          1 IU4      -0.580100
     20 O2           9.7180   -23.6200   -13.7580 os         1 IU4      -0.406600
     21 S1          12.4400   -25.4720    -9.7470 ss         1 IU4      -0.256300
     22 H1          17.5580   -18.1050    -3.1630 hc         1 IU4       0.063033
     23 H2          16.4300   -17.2390    -4.2160 hc         1 IU4       0.063033
     24 H3          15.9000   -17.8460    -2.6450 hc         1 IU4       0.063033
     25 H5          12.2130   -22.3930   -13.1640 h1         1 IU4       0.062700
     26 H6          11.5750   -21.7570   -11.6580 h1         1 IU4       0.062700
     27 H7           9.9600   -21.5860   -13.5620 h1         1 IU4       0.054200
     28 H8           9.3370   -22.4230   -12.1370 h1         1 IU4       0.054200
     29 H9          10.2380   -25.5020   -14.2710 h1         1 IU4       0.054200
     30 H10         11.5500   -24.3410   -14.4250 h1         1 IU4       0.054200
     31 H11         10.3640   -25.4810   -11.8490 h1         1 IU4       0.062700
     32 H12         11.9750   -25.7660   -12.5220 h1         1 IU4       0.062700
     33 H13         14.0580   -18.9640    -7.3910 ha         1 IU4       0.145000
     34 H14         13.1050   -20.6480    -8.8720 ha         1 IU4       0.140500
     35 H15         14.8000   -23.7290    -6.4290 ha         1 IU4       0.140500
     36 H16         15.7420   -22.0700    -4.9540 ha         1 IU4       0.145000
     37 H17         15.3380   -18.4210    -5.6470 hn         1 IU4       0.315500
     38 H4          13.5470   -25.2300    -7.5690 h4         1 IU4       0.178000
@<TRIPOS>BOND
     1     1     8 1   
     2     1    22 1   
     3     1    23 1   
     4     1    24 1   
     5     2    15 2   
     6     2    21 1   
     7     2    38 1   
     8     3    17 2   
     9     3    18 1   
    10     3    21 1   
    11     4     5 1   
    12     4    18 1   
    13     4    25 1   
    14     4    26 1   
    15     5    20 1   
    16     5    27 1   
    17     5    28 1   
    18     6     7 1   
    19     6    20 1   
    20     6    29 1   
    21     6    30 1   
    22     7    18 1   
    23     7    31 1   
    24     7    32 1   
    25     8    16 1   
    26     8    19 2   
    27     9    10 ar  
    28     9    14 ar  
    29     9    16 1   
    30    10    11 ar  
    31    10    33 1   
    32    11    12 ar  
    33    11    34 1   
    34    12    13 ar  
    35    12    15 1   
    36    13    14 ar  
    37    13    35 1   
    38    14    36 1   
    39    15    17 1   
    40    16    37 1   
@<TRIPOS>SUBSTRUCTURE
     1 IU4         1 TEMP              0 ****  ****    0 ROOT
