@<TRIPOS>MOLECULE
IU4
   38    40     1     0     0
SMALL
No Charge or Current Charge


@<TRIPOS>ATOM
      1 C1          16.5800   -18.0140    -3.3960 c3         1 IU4      -0.182100
      2 C10         13.6530   -24.6850    -8.6720 cc         1 IU4      -0.286000
      3 C11         12.2610   -23.9810   -10.5210 cc         1 IU4       0.735300
      4 C12         10.7690   -22.5460   -11.9520 c6         1 IU4       0.193800
      5 C13         10.4350   -22.3940   -13.4650 c6         1 IU4       0.146100
      6 C14         10.5230   -24.7680   -13.8210 c6         1 IU4       0.146100
      7 C15         10.8640   -25.0430   -12.3270 c6         1 IU4       0.193800
      8 C2          16.3140   -19.3890    -4.0050 c          1 IU4       0.608100
      9 C3          15.0250   -20.3810    -5.9990 ca         1 IU4      -0.013000
     10 C4          14.2150   -19.9920    -7.0790 ca         1 IU4      -0.159000
     11 C5          13.6970   -20.9450    -7.9730 ca         1 IU4      -0.058000
     12 C6          13.9790   -22.3200    -7.8090 ca         1 IU4      -0.148500
     13 C7          14.7940   -22.7070    -6.7210 ca         1 IU4      -0.058000
     14 C8          15.3100   -21.7510    -5.8280 ca         1 IU4      -0.159000
     15 C9          13.4330   -23.3260    -8.7520 cd         1 IU4       0.402500
     16 N1          15.5110   -19.3580    -5.1370 ns         1 IU4      -0.147000
     17 N2          12.6330   -22.9310    -9.8150 nd         1 IU4      -0.749000
     18 N3          11.4550   -23.8470   -11.6360 nh         1 IU4      -0.788300
     19 O1          16.7870   -20.4050    -3.5090 o          1 IU4      -0.580100
     20 O2           9.7390   -23.5610   -13.9600 os         1 IU4      -0.453000
     21 S1          12.8460   -25.5300    -9.9580 ss         1 IU4      -0.111400
     22 H1          17.2150   -18.0620    -2.5050 hc         1 IU4       0.063033
     23 H2          17.0080   -17.3610    -4.1650 hc         1 IU4       0.063033
     24 H3          15.6210   -17.5270    -3.1850 hc         1 IU4       0.063033
     25 H5          11.3910   -21.6870   -11.6620 h1         1 IU4       0.062700
     26 H6           9.8350   -22.4700   -11.3760 h1         1 IU4       0.062700
     27 H7          11.3630   -22.2570   -14.0390 h1         1 IU4       0.054200
     28 H8           9.8070   -21.5060   -13.6200 h1         1 IU4       0.054200
     29 H9           9.9580   -25.6140   -14.2360 h1         1 IU4       0.054200
     30 H10         11.4520   -24.6630   -14.4010 h1         1 IU4       0.054200
     31 H11          9.9470   -25.3560   -11.8070 h1         1 IU4       0.062700
     32 H12         11.5540   -25.8990   -12.3010 h1         1 IU4       0.062700
     33 H13         13.9800   -18.9410    -7.2310 ha         1 IU4       0.127000
     34 H14         13.0740   -20.6020    -8.7960 ha         1 IU4       0.122500
     35 H15         15.0380   -23.7520    -6.5540 ha         1 IU4       0.122500
     36 H16         15.9310   -22.1010    -5.0100 ha         1 IU4       0.127000
     37 H17         15.2120   -18.4290    -5.4020 hn         1 IU4       0.149000
     38 H4          14.2310   -25.2440    -7.9500 h4         1 IU4       0.160000
@<TRIPOS>BOND
     1     1     8 1   
     2     1    22 1   
     3     1    23 1   
     4     1    24 1   
     5     2    15 2   
     6     2    21 1   
     7     2    38 1   
     8     3    17 2   
     9     3    18 1   
    10     3    21 1   
    11     4     5 1   
    12     4    18 1   
    13     4    25 1   
    14     4    26 1   
    15     5    20 1   
    16     5    27 1   
    17     5    28 1   
    18     6     7 1   
    19     6    20 1   
    20     6    29 1   
    21     6    30 1   
    22     7    18 1   
    23     7    31 1   
    24     7    32 1   
    25     8    16 1   
    26     8    19 2   
    27     9    10 ar  
    28     9    14 ar  
    29     9    16 1   
    30    10    11 ar  
    31    10    33 1   
    32    11    12 ar  
    33    11    34 1   
    34    12    13 ar  
    35    12    15 1   
    36    13    14 ar  
    37    13    35 1   
    38    14    36 1   
    39    15    17 1   
    40    16    37 1   
@<TRIPOS>SUBSTRUCTURE
     1 IU4         1 TEMP              0 ****  ****    0 ROOT
