@<TRIPOS>MOLECULE
IU5
   67    70     1     0     0
SMALL
bcc


@<TRIPOS>ATOM
      1 C1           1.8880     0.2070    -4.2310 c6         1 IU5      -0.063400
      2 C10          0.5900     0.7190    -3.5820 c6         1 IU5      -0.030000
      3 C11          1.6270     0.7760    -1.2320 c6         1 IU5      -0.070400
      4 C12          1.5770     0.2470     0.1990 c6         1 IU5      -0.063400
      5 C13          0.2470     0.5560     0.8820 c5         1 IU5      -0.040000
      6 C14         -0.8820     0.0340    -0.0350 c5         1 IU5      -0.057700
      7 C15         -2.1200     0.1220     0.8520 c5         1 IU5      -0.064400
      8 C16         -1.5930    -0.2450     2.2520 c5         1 IU5      -0.080400
      9 C17         -0.0440    -0.2470     2.1740 c5         1 IU5      -0.048700
     10 C18          0.1180     2.0580     1.1590 c3         1 IU5      -0.073100
     11 C19          0.6020     2.2480    -3.6920 c3         1 IU5      -0.083100
     12 O1A         -3.2580     0.6800    -1.7600 oh         1 IU5      -0.593800
     13 O1B          0.8280    -1.4310    -6.5060 oh         1 IU5      -0.602800
     14 C2           1.9640    -1.3080    -4.3560 c6         1 IU5      -0.109400
     15 C20          0.6000     0.1920     3.4990 c3         1 IU5      -0.057700
     16 C21          2.1240     0.2530     3.4370 c3         1 IU5      -0.080100
     17 C22          0.1470    -0.7480     4.6270 c3         1 IU5      -0.057400
     18 C23          0.5690    -0.3240     6.0250 c3         1 IU5      -0.206400
     19 C24         -0.0170    -1.1600     7.1790 c          1 IU5       0.925600
     20 C3           0.7880    -1.8600    -5.1550 c6         1 IU5       0.149100
     21 C4          -0.5240    -1.3810    -4.5570 c6         1 IU5      -0.065400
     22 O4          -0.8220    -2.0700     6.8990 o          1 IU5      -0.848800
     23 O4A          0.3700    -0.8480     8.3260 o          1 IU5      -0.848800
     24 C5          -0.5980     0.1410    -4.3810 c6         1 IU5      -0.042700
     25 C6          -1.9230     0.5580    -3.7550 c6         1 IU5      -0.109400
     26 C7          -2.0570     0.1460    -2.2920 c6         1 IU5       0.151100
     27 C8          -0.8850     0.6370    -1.4430 c6         1 IU5      -0.037700
     28 C9           0.4710     0.2770    -2.1020 c6         1 IU5      -0.048700
     29 HC11         2.7590     0.5840    -3.6910 hc         1 IU5       0.040700
     30 HC12         1.9610     0.6440    -5.2330 hc         1 IU5       0.040700
     31 H111         2.5790     0.4650    -1.6670 hc         1 IU5       0.033200
     32 H112         1.6470     1.8690    -1.2280 hc         1 IU5       0.033200
     33 H121         1.7180    -0.8400     0.1840 hc         1 IU5       0.041200
     34 H122         2.4220     0.6600     0.7530 hc         1 IU5       0.041200
     35 H141        -0.6730    -1.0390    -0.1750 hc         1 IU5       0.034700
     36 H151        -2.9200    -0.5420     0.5260 hc         1 IU5       0.040700
     37 H152        -2.5330     1.1330     0.8430 hc         1 IU5       0.040700
     38 H161        -1.9710    -1.2160     2.5730 hc         1 IU5       0.050200
     39 H162        -1.9360     0.4760     2.9980 hc         1 IU5       0.050200
     40 H171         0.2930    -1.2770     1.9830 hc         1 IU5       0.040700
     41 H181         0.0970     2.6540     0.2460 hc         1 IU5       0.029367
     42 H182        -0.7860     2.3000     1.7210 hc         1 IU5       0.029367
     43 H183         0.9650     2.4170     1.7460 hc         1 IU5       0.029367
     44 H191         0.4590     2.5610    -4.7290 hc         1 IU5       0.032700
     45 H192        -0.1740     2.7250    -3.0950 hc         1 IU5       0.032700
     46 H193         1.5590     2.6590    -3.3640 hc         1 IU5       0.032700
     47 HOA1        -3.9890     0.3360    -2.2840 ho         1 IU5       0.393000
     48 HOB1         1.6890    -1.6640    -6.8680 ho         1 IU5       0.396000
     49 HC21         1.9720    -1.7780    -3.3680 hc         1 IU5       0.043200
     50 HC22         2.9070    -1.6020    -4.8290 hc         1 IU5       0.043200
     51 H201         0.2270     1.1980     3.7370 hc         1 IU5       0.037700
     52 H211         2.5440    -0.7050     3.1170 hc         1 IU5       0.023033
     53 H212         2.4840     1.0160     2.7500 hc         1 IU5       0.023033
     54 H213         2.5530     0.4880     4.4120 hc         1 IU5       0.023033
     55 H221        -0.9410    -0.8290     4.6150 hc         1 IU5       0.040700
     56 H222         0.5210    -1.7560     4.4130 hc         1 IU5       0.040700
     57 H231         1.6570    -0.3400     6.1330 hc         1 IU5       0.015700
     58 H232         0.2840     0.7230     6.1890 hc         1 IU5       0.015700
     59 HC31         0.8130    -2.9590    -5.1120 h1         1 IU5       0.026700
     60 HC41        -0.6650    -1.8990    -3.6060 hc         1 IU5       0.047200
     61 HC42        -1.3540    -1.7070    -5.1920 hc         1 IU5       0.047200
     62 HC51        -0.5540     0.5800    -5.3840 hc         1 IU5       0.056700
     63 HC61        -2.7530     0.1270    -4.3270 hc         1 IU5       0.041700
     64 HC62        -2.0390     1.6450    -3.8200 hc         1 IU5       0.041700
     65 HC71        -2.0800    -0.9530    -2.2300 h1         1 IU5       0.026700
     66 HC81        -0.9780     1.7290    -1.3770 hc         1 IU5       0.062700
     67 HC91         0.5300    -0.8200    -2.0790 hc         1 IU5       0.042700
@<TRIPOS>BOND
     1     1     2 1   
     2     1    14 1   
     3     1    29 1   
     4     1    30 1   
     5     2    11 1   
     6     2    24 1   
     7     2    28 1   
     8     3     4 1   
     9     3    28 1   
    10     3    31 1   
    11     3    32 1   
    12     4     5 1   
    13     4    33 1   
    14     4    34 1   
    15     5     6 1   
    16     5     9 1   
    17     5    10 1   
    18     6     7 1   
    19     6    27 1   
    20     6    35 1   
    21     7     8 1   
    22     7    36 1   
    23     7    37 1   
    24     8     9 1   
    25     8    38 1   
    26     8    39 1   
    27     9    15 1   
    28     9    40 1   
    29    10    41 1   
    30    10    42 1   
    31    10    43 1   
    32    11    44 1   
    33    11    45 1   
    34    11    46 1   
    35    12    26 1   
    36    12    47 1   
    37    13    20 1   
    38    13    48 1   
    39    14    20 1   
    40    14    49 1   
    41    14    50 1   
    42    15    16 1   
    43    15    17 1   
    44    15    51 1   
    45    16    52 1   
    46    16    53 1   
    47    16    54 1   
    48    17    18 1   
    49    17    55 1   
    50    17    56 1   
    51    18    19 1   
    52    18    57 1   
    53    18    58 1   
    54    19    22 1   
    55    19    23 1   
    56    20    21 1   
    57    20    59 1   
    58    21    24 1   
    59    21    60 1   
    60    21    61 1   
    61    24    25 1   
    62    24    62 1   
    63    25    26 1   
    64    25    63 1   
    65    25    64 1   
    66    26    27 1   
    67    26    65 1   
    68    27    28 1   
    69    27    66 1   
    70    28    67 1   
@<TRIPOS>SUBSTRUCTURE
     1 IU5         1 TEMP              0 ****  ****    0 ROOT
