@<TRIPOS>MOLECULE
IU5
   67    70     1     0     0
SMALL
No Charge or Current Charge


@<TRIPOS>ATOM
      1 C1           1.9120     0.3050    -4.3230 c6         1 IU5      -0.063400
      2 C10          0.5660     0.7330    -3.6330 c6         1 IU5      -0.030000
      3 C11          1.6490     0.8500    -1.2290 c6         1 IU5      -0.070400
      4 C12          1.5830     0.3370     0.2360 c6         1 IU5      -0.063400
      5 C13          0.2160     0.6510     0.9270 c5         1 IU5      -0.040000
      6 C14         -0.9230     0.0520     0.0220 c5         1 IU5      -0.057700
      7 C15         -2.1790     0.2680     0.9060 c5         1 IU5      -0.064400
      8 C16         -1.6650    -0.0350     2.3470 c5         1 IU5      -0.080400
      9 C17         -0.1000    -0.1810     2.2380 c5         1 IU5      -0.048700
     10 C18          0.1350     2.1990     1.1720 c3         1 IU5      -0.073100
     11 C19          0.4810     2.2960    -3.7670 c3         1 IU5      -0.083100
     12 O1A         -3.3730     0.4440    -1.8510 oh         1 IU5      -0.656000
     13 O1B          0.9640    -1.5130    -6.6070 oh         1 IU5      -0.665000
     14 C2           2.0940    -1.2310    -4.4510 c6         1 IU5      -0.109400
     15 C20          0.6400     0.1590     3.5880 c3         1 IU5      -0.057700
     16 C21          2.1870     0.1580     3.4730 c3         1 IU5      -0.080100
     17 C22          0.1630    -0.7790     4.7460 c3         1 IU5      -0.057400
     18 C23          0.6640    -0.4140     6.1720 c3         1 IU5      -0.206400
     19 C24         -0.1130    -1.2200     7.2310 c          1 IU5       0.715000
     20 C3           0.9230    -1.8840    -5.2240 c6         1 IU5       0.172300
     21 C4          -0.4360    -1.4880    -4.5950 c6         1 IU5      -0.066400
     22 O4          -1.1480    -0.7450     7.6730 o          1 IU5      -0.743500
     23 O4A          0.3160    -2.3180     7.5490 o          1 IU5      -0.743500
     24 C5          -0.6090     0.0610    -4.4370 c6         1 IU5      -0.042700
     25 C6          -1.9890     0.3990    -3.8100 c6         1 IU5      -0.109400
     26 C7          -2.0950    -0.0030    -2.3170 c6         1 IU5       0.174300
     27 C8          -0.9260     0.5950    -1.4550 c6         1 IU5      -0.037700
     28 C9           0.4810     0.2840    -2.1100 c6         1 IU5      -0.048700
     29 HC11         2.7790     0.7370    -3.8080 hc         1 IU5       0.040700
     30 HC12         1.9500     0.7380    -5.3330 hc         1 IU5       0.040700
     31 H111         2.6200     0.5440    -1.6370 hc         1 IU5       0.033200
     32 H112         1.6480     1.9460    -1.2380 hc         1 IU5       0.033200
     33 H121         1.7650    -0.7470     0.2420 hc         1 IU5       0.041200
     34 H122         2.4140     0.7910     0.7830 hc         1 IU5       0.041200
     35 H141        -0.7720    -1.0280    -0.1020 hc         1 IU5       0.034700
     36 H151        -2.9970    -0.4050     0.6310 hc         1 IU5       0.040700
     37 H152        -2.5650     1.2910     0.8250 hc         1 IU5       0.040700
     38 H161        -2.1190    -0.9530     2.7390 hc         1 IU5       0.050200
     39 H162        -1.9550     0.7710     3.0300 hc         1 IU5       0.050200
     40 H171         0.1390    -1.2350     2.0480 hc         1 IU5       0.040700
     41 H181         0.1170     2.7700     0.2380 hc         1 IU5       0.029367
     42 H182        -0.7560     2.4940     1.7370 hc         1 IU5       0.029367
     43 H183         0.9980     2.5520     1.7470 hc         1 IU5       0.029367
     44 H191         0.4190     2.5990    -4.8190 hc         1 IU5       0.032700
     45 H192        -0.3890     2.7270    -3.2630 hc         1 IU5       0.032700
     46 H193         1.3690     2.7880    -3.3530 hc         1 IU5       0.032700
     47 HOA1        -4.0440     0.0090    -2.4180 ho         1 IU5       0.432000
     48 HOB1         1.8470    -1.7810    -6.9410 ho         1 IU5       0.435000
     49 HC21         2.1790    -1.6860    -3.4550 hc         1 IU5       0.043200
     50 HC22         3.0440    -1.4500    -4.9580 hc         1 IU5       0.043200
     51 H201         0.3540     1.1780     3.8770 hc         1 IU5       0.037700
     52 H211         2.5460    -0.7590     2.9900 hc         1 IU5       0.023033
     53 H212         2.5330     1.0240     2.9020 hc         1 IU5       0.023033
     54 H213         2.6740     0.2420     4.4490 hc         1 IU5       0.023033
     55 H221        -0.9320    -0.7710     4.7830 hc         1 IU5       0.040700
     56 H222         0.4520    -1.8120     4.5160 hc         1 IU5       0.040700
     57 H231         1.7250    -0.6850     6.2110 hc         1 IU5       0.015700
     58 H232         0.4720     0.6590     6.2970 hc         1 IU5       0.015700
     59 HC31         1.0290    -2.9770    -5.1460 h1         1 IU5       0.026700
     60 HC41        -0.5320    -1.9950    -3.6280 hc         1 IU5       0.047200
     61 HC42        -1.2490    -1.8890    -5.2160 hc         1 IU5       0.047200
     62 HC51        -0.6090     0.4830    -5.4520 hc         1 IU5       0.056700
     63 HC61        -2.7790    -0.1050    -4.3830 hc         1 IU5       0.041700
     64 HC62        -2.1930     1.4730    -3.9200 hc         1 IU5       0.041700
     65 HC71        -2.0470    -1.0990    -2.2460 h1         1 IU5       0.026700
     66 HC81        -1.0680     1.6810    -1.4120 hc         1 IU5       0.062700
     67 HC91         0.5960    -0.8060    -2.0770 hc         1 IU5       0.042700
@<TRIPOS>BOND
     1     1     2 1   
     2     1    14 1   
     3     1    29 1   
     4     1    30 1   
     5     2    11 1   
     6     2    24 1   
     7     2    28 1   
     8     3     4 1   
     9     3    28 1   
    10     3    31 1   
    11     3    32 1   
    12     4     5 1   
    13     4    33 1   
    14     4    34 1   
    15     5     6 1   
    16     5     9 1   
    17     5    10 1   
    18     6     7 1   
    19     6    27 1   
    20     6    35 1   
    21     7     8 1   
    22     7    36 1   
    23     7    37 1   
    24     8     9 1   
    25     8    38 1   
    26     8    39 1   
    27     9    15 1   
    28     9    40 1   
    29    10    41 1   
    30    10    42 1   
    31    10    43 1   
    32    11    44 1   
    33    11    45 1   
    34    11    46 1   
    35    12    26 1   
    36    12    47 1   
    37    13    20 1   
    38    13    48 1   
    39    14    20 1   
    40    14    49 1   
    41    14    50 1   
    42    15    16 1   
    43    15    17 1   
    44    15    51 1   
    45    16    52 1   
    46    16    53 1   
    47    16    54 1   
    48    17    18 1   
    49    17    55 1   
    50    17    56 1   
    51    18    19 1   
    52    18    57 1   
    53    18    58 1   
    54    19    22 1   
    55    19    23 1   
    56    20    21 1   
    57    20    59 1   
    58    21    24 1   
    59    21    60 1   
    60    21    61 1   
    61    24    25 1   
    62    24    62 1   
    63    25    26 1   
    64    25    63 1   
    65    25    64 1   
    66    26    27 1   
    67    26    65 1   
    68    27    28 1   
    69    27    66 1   
    70    28    67 1   
@<TRIPOS>SUBSTRUCTURE
     1 IU5         1 TEMP              0 ****  ****    0 ROOT
