@<TRIPOS>MOLECULE
IU7
   41    43     1     0     0
SMALL
No Charge or Current Charge


@<TRIPOS>ATOM
      1 O01          6.8520    23.7940     8.4810 o          1 IU7      -0.716500
      2 C02          6.6650    22.6240     8.7870 c          1 IU7       0.726600
      3 O03          6.8900    22.1710     9.9000 o          1 IU7      -0.716500
      4 C04          6.0070    21.7260     7.7640 ca         1 IU7      -0.066600
      5 C05          6.7170    21.3480     6.5930 ca         1 IU7      -0.088600
      6 C06          8.1420    21.7970     6.3630 c          1 IU7       0.722600
      7 O07          8.4150    22.3200     5.2910 o          1 IU7      -0.724000
      8 O08          8.9810    21.5290     7.2120 o          1 IU7      -0.724000
      9 C09          6.0870    20.5320     5.6300 ca         1 IU7      -0.104000
     10 C10          4.7730    20.0840     5.8230 ca         1 IU7      -0.166000
     11 C11          4.0700    20.4530     6.9780 ca         1 IU7      -0.136000
     12 C12          4.6730    21.2750     7.9510 ca         1 IU7      -0.056200
     13 N13          3.9290    21.6560     9.0730 na         1 IU7       0.275000
     14 N14          3.4350    20.7320     9.9370 nc         1 IU7      -0.208800
     15 N15          2.7690    21.4220    10.8280 nd         1 IU7      -0.404000
     16 C16          2.8380    22.7740    10.5100 cd         1 IU7       0.184500
     17 C17          2.1840    23.8310    11.3120 ca         1 IU7      -0.071500
     18 C18          1.4440    23.5050    12.4700 ca         1 IU7      -0.075000
     19 C19          0.8200    24.5100    13.2320 ca         1 IU7      -0.171500
     20 C20          0.9290    25.8610    12.8450 ca         1 IU7       0.097100
     21 O21          0.3390    26.8890    13.5510 os         1 IU7      -0.371100
     22 C22         -0.4360    26.6540    14.7440 c3         1 IU7       0.167600
     23 C23         -0.9400    28.0250    15.2670 c3         1 IU7       0.143800
     24 N24         -1.7660    27.9210    16.4990 n8         1 IU7      -1.006200
     25 C25          1.6630    26.1910    11.6960 ca         1 IU7      -0.171500
     26 C26          2.2860    25.1870    10.9330 ca         1 IU7      -0.075000
     27 C27          3.5810    22.9420     9.3690 cc         1 IU7      -0.123000
     28 H3           6.6260    20.2390     4.7320 ha         1 IU7       0.102000
     29 H4           4.2980    19.4530     5.0760 ha         1 IU7       0.071000
     30 H5           3.0470    20.1080     7.1130 ha         1 IU7       0.086000
     31 H6           1.3470    22.4690    12.7870 ha         1 IU7       0.130000
     32 H7           0.2600    24.2180    14.1160 ha         1 IU7       0.105000
     33 H8          -1.2960    26.0080    14.5240 h1         1 IU7       0.038200
     34 H9           0.1790    26.1730    15.5160 h1         1 IU7       0.038200
     35 H10         -0.0730    28.6650    15.4820 h1         1 IU7       0.041200
     36 H11         -1.5380    28.5120    14.4840 h1         1 IU7       0.041200
     37 H12         -2.0960    28.8590    16.7620 hn         1 IU7       0.389500
     38 H13         -2.6340    27.4150    16.2820 hn         1 IU7       0.389500
     39 H15          1.7500    27.2310    11.3920 ha         1 IU7       0.105000
     40 H16          2.8480    25.4750    10.0480 ha         1 IU7       0.130000
     41 H17          3.8700    23.8030     8.7860 h4         1 IU7       0.192000
@<TRIPOS>BOND
     1     1     2 1   
     2     2     3 1   
     3     2     4 1   
     4     4     5 ar  
     5     4    12 ar  
     6     5     6 1   
     7     5     9 ar  
     8     6     7 1   
     9     6     8 1   
    10     9    10 ar  
    11     9    28 1   
    12    10    11 ar  
    13    10    29 1   
    14    11    12 ar  
    15    11    30 1   
    16    12    13 1   
    17    13    14 1   
    18    13    27 1   
    19    14    15 2   
    20    15    16 1   
    21    16    17 1   
    22    16    27 2   
    23    17    18 ar  
    24    17    26 ar  
    25    18    19 ar  
    26    18    31 1   
    27    19    20 ar  
    28    19    32 1   
    29    20    21 1   
    30    20    25 ar  
    31    21    22 1   
    32    22    23 1   
    33    22    33 1   
    34    22    34 1   
    35    23    24 1   
    36    23    35 1   
    37    23    36 1   
    38    24    37 1   
    39    24    38 1   
    40    25    26 ar  
    41    25    39 1   
    42    26    40 1   
    43    27    41 1   
@<TRIPOS>SUBSTRUCTURE
     1 IU7         1 TEMP              0 ****  ****    0 ROOT
