@<TRIPOS>MOLECULE
IU7
   41    43     1     0     0
SMALL
abcg2


@<TRIPOS>ATOM
      1 O01          6.6620    23.9540     8.3190 o          1 IU7      -0.716500
      2 C02          6.5340    22.7770     8.7310 c          1 IU7       0.726600
      3 O03          6.7930    22.3370     9.8750 o          1 IU7      -0.716500
      4 C04          5.9580    21.7730     7.7340 ca         1 IU7      -0.066600
      5 C05          6.6850    21.3490     6.6130 ca         1 IU7      -0.088600
      6 C06          8.0950    21.8540     6.3310 c          1 IU7       0.722600
      7 O07          8.3000    22.3140     5.1790 o          1 IU7      -0.724000
      8 O08          8.9350    21.7410     7.2570 o          1 IU7      -0.724000
      9 C09          6.1270    20.4150     5.7400 ca         1 IU7      -0.104000
     10 C10          4.8610    19.8860     5.9610 ca         1 IU7      -0.166000
     11 C11          4.1170    20.3230     7.0470 ca         1 IU7      -0.136000
     12 C12          4.6710    21.2600     7.9120 ca         1 IU7      -0.056200
     13 N13          3.8720    21.7090     9.0080 na         1 IU7       0.275000
     14 N14          3.2980    20.8330     9.8550 nc         1 IU7      -0.208800
     15 N15          2.6350    21.5230    10.7390 nd         1 IU7      -0.404000
     16 C16          2.7720    22.8580    10.4800 cd         1 IU7       0.184500
     17 C17          2.1490    23.8990    11.2970 ca         1 IU7      -0.071500
     18 C18          1.3390    23.5730    12.3860 ca         1 IU7      -0.075000
     19 C19          0.7450    24.5560    13.1700 ca         1 IU7      -0.171500
     20 C20          0.9550    25.9020    12.8700 ca         1 IU7       0.097100
     21 O21          0.4200    26.9370    13.5690 os         1 IU7      -0.371100
     22 C22         -0.4090    26.6450    14.6970 c3         1 IU7       0.167600
     23 C23         -0.8650    27.9670    15.2840 c3         1 IU7       0.143800
     24 N24         -1.7500    27.7090    16.4240 n8         1 IU7      -1.006200
     25 C25          1.7640    26.2430    11.7820 ca         1 IU7      -0.171500
     26 C26          2.3510    25.2570    11.0120 ca         1 IU7      -0.075000
     27 C27          3.5690    22.9770     9.3600 cc         1 IU7      -0.123000
     28 H3           6.7010    20.0990     4.8780 ha         1 IU7       0.102000
     29 H4           4.4470    19.1540     5.2800 ha         1 IU7       0.071000
     30 H5           3.1130    19.9610     7.2230 ha         1 IU7       0.086000
     31 H6           1.1690    22.5330    12.6300 ha         1 IU7       0.130000
     32 H7           0.1250    24.2620    14.0040 ha         1 IU7       0.105000
     33 H8          -1.2720    26.0500    14.3780 h1         1 IU7       0.038200
     34 H9           0.1530    26.0710    15.4390 h1         1 IU7       0.038200
     35 H10          0.0070    28.5180    15.6400 h1         1 IU7       0.041200
     36 H11         -1.3320    28.5640    14.4910 h1         1 IU7       0.041200
     37 H12         -1.9490    28.5780    16.9060 hn         1 IU7       0.389500
     38 H13         -2.6440    27.3570    16.0950 hn         1 IU7       0.389500
     39 H15          1.9250    27.2900    11.5560 ha         1 IU7       0.105000
     40 H16          2.9760    25.5480    10.1780 ha         1 IU7       0.130000
     41 H17          3.9350    23.8230     8.8070 h4         1 IU7       0.192000
@<TRIPOS>BOND
     1     1     2 1   
     2     2     3 1   
     3     2     4 1   
     4     4     5 ar  
     5     4    12 ar  
     6     5     6 1   
     7     5     9 ar  
     8     6     7 1   
     9     6     8 1   
    10     9    10 ar  
    11     9    28 1   
    12    10    11 ar  
    13    10    29 1   
    14    11    12 ar  
    15    11    30 1   
    16    12    13 1   
    17    13    14 1   
    18    13    27 1   
    19    14    15 2   
    20    15    16 1   
    21    16    17 1   
    22    16    27 2   
    23    17    18 ar  
    24    17    26 ar  
    25    18    19 ar  
    26    18    31 1   
    27    19    20 ar  
    28    19    32 1   
    29    20    21 1   
    30    20    25 ar  
    31    21    22 1   
    32    22    23 1   
    33    22    33 1   
    34    22    34 1   
    35    23    24 1   
    36    23    35 1   
    37    23    36 1   
    38    24    37 1   
    39    24    38 1   
    40    25    26 ar  
    41    25    39 1   
    42    26    40 1   
    43    27    41 1   
@<TRIPOS>SUBSTRUCTURE
     1 IU7         1 TEMP              0 ****  ****    0 ROOT
