@<TRIPOS>MOLECULE
IUA
   31    33     1     0     0
SMALL
abcg2


@<TRIPOS>ATOM
      1 C10        -23.6270    30.7510   -23.1230 c3         1 IUA       0.140900
      2 C13        -24.8520    32.5200   -26.2620 ca         1 IUA      -0.110000
      3 C15        -26.5830    32.6310   -24.5940 ca         1 IUA      -0.110000
      4 C17        -21.7440    29.3140   -24.0380 cc         1 IUA       0.402700
      5 C02        -25.3460    26.9440   -24.3530 ca         1 IUA       0.283000
      6 C04        -23.2530    26.2790   -25.0210 ca         1 IUA       0.455900
      7 C06        -22.8930    24.0470   -25.9960 c3         1 IUA       0.223100
      8 C07        -22.7890    27.5410   -24.5870 ca         1 IUA      -0.103600
      9 C08        -23.7400    28.4030   -24.0490 ca         1 IUA       0.135500
     10 C11        -24.5030    31.5040   -24.0980 ca         1 IUA      -0.113300
     11 C12        -24.0460    31.8120   -25.3790 ca         1 IUA      -0.086000
     12 C14        -26.1230    32.9330   -25.8710 ca         1 IUA      -0.098000
     13 C16        -25.7760    31.9160   -23.7140 ca         1 IUA      -0.086000
     14 N03        -24.5710    26.0120   -24.8860 nb         1 IUA      -0.284000
     15 N05        -22.4470    25.3540   -25.5500 nu         1 IUA      -0.910100
     16 N09        -23.0560    29.5380   -23.6980 na         1 IUA      -0.282300
     17 N18        -21.5400    28.1310   -24.5710 nd         1 IUA      -0.550100
     18 N19        -25.0520    28.1460   -23.9070 nb         1 IUA      -0.197000
     19 H102       -24.1990    30.4770   -22.2380 h1         1 IUA       0.068200
     20 H101       -22.7870    31.3670   -22.8000 h1         1 IUA       0.068200
     21 H131       -24.4870    32.7520   -27.2550 ha         1 IUA       0.115500
     22 H151       -27.5730    32.9430   -24.2840 ha         1 IUA       0.115500
     23 H171       -20.9910    30.0670   -23.8630 h5         1 IUA       0.067800
     24 H062       -22.0300    23.5100   -26.3820 h1         1 IUA       0.047700
     25 H063       -23.3280    23.4770   -25.1720 h1         1 IUA       0.047700
     26 H061       -23.6420    24.1360   -26.7850 h1         1 IUA       0.047700
     27 H121       -23.0580    31.4940   -25.6910 ha         1 IUA       0.114000
     28 H141       -26.7510    33.4830   -26.5600 ha         1 IUA       0.114000
     29 H161       -26.1400    31.6690   -22.7240 ha         1 IUA       0.114000
     30 H051       -21.4710    25.5860   -25.6320 hn         1 IUA       0.516000
     31 CL01       -27.0450    26.4950   -24.2220 cl         1 IUA      -0.149000
@<TRIPOS>BOND
     1     1    10 1   
     2     1    16 1   
     3     1    19 1   
     4     1    20 1   
     5     2    11 ar  
     6     2    12 ar  
     7     2    21 1   
     8     3    12 ar  
     9     3    13 ar  
    10     3    22 1   
    11     4    16 1   
    12     4    17 2   
    13     4    23 1   
    14     5    14 ar  
    15     5    18 ar  
    16     5    31 1   
    17     6     8 ar  
    18     6    14 ar  
    19     6    15 1   
    20     7    15 1   
    21     7    24 1   
    22     7    25 1   
    23     7    26 1   
    24     8     9 ar  
    25     8    17 1   
    26     9    16 1   
    27     9    18 ar  
    28    10    11 ar  
    29    10    13 ar  
    30    11    27 1   
    31    12    28 1   
    32    13    29 1   
    33    15    30 1   
@<TRIPOS>SUBSTRUCTURE
     1 IUA         1 TEMP              0 ****  ****    0 ROOT
