@<TRIPOS>MOLECULE
IUA
   31    33     1     0     0
SMALL
No Charge or Current Charge


@<TRIPOS>ATOM
      1 C10        -23.5920    30.7460   -23.1690 c3         1 IUA       0.140900
      2 C13        -24.6200    33.0710   -26.0430 ca         1 IUA      -0.110000
      3 C15        -26.6350    32.3000   -24.9190 ca         1 IUA      -0.110000
      4 C17        -21.7800    29.3410   -24.3480 cc         1 IUA       0.402700
      5 C02        -25.3980    26.7900   -23.9470 ca         1 IUA       0.283000
      6 C04        -23.3960    26.2350   -24.9150 ca         1 IUA       0.455900
      7 C06        -22.9290    23.9400   -25.9790 c3         1 IUA       0.223100
      8 C07        -22.9220    27.5260   -24.6010 ca         1 IUA      -0.103600
      9 C08        -23.7700    28.3880   -23.9500 ca         1 IUA       0.135500
     10 C11        -24.4450    31.5620   -24.1330 ca         1 IUA      -0.113300
     11 C12        -23.8340    32.3240   -25.1490 ca         1 IUA      -0.086000
     12 C14        -26.0210    33.0590   -25.9290 ca         1 IUA      -0.098000
     13 C16        -25.8490    31.5530   -24.0230 ca         1 IUA      -0.086000
     14 N03        -24.6480    25.8620   -24.5860 nb         1 IUA      -0.284000
     15 N05        -22.5860    25.3160   -25.5740 nu         1 IUA      -0.910100
     16 N09        -23.0430    29.5320   -23.7890 na         1 IUA      -0.282300
     17 N18        -21.6680    28.0990   -24.8590 nd         1 IUA      -0.550100
     18 N19        -25.0250    28.0460   -23.6060 nb         1 IUA      -0.197000
     19 H102       -24.1880    30.4600   -22.2920 h1         1 IUA       0.068200
     20 H101       -22.7610    31.3660   -22.8080 h1         1 IUA       0.068200
     21 H131       -24.1440    33.6570   -26.8260 ha         1 IUA       0.115500
     22 H151       -27.7190    32.2880   -24.8300 ha         1 IUA       0.115500
     23 H171       -21.0200    30.1140   -24.3530 h5         1 IUA       0.067800
     24 H062       -22.0770    23.4630   -26.4820 h1         1 IUA       0.047700
     25 H063       -23.1950    23.3340   -25.1020 h1         1 IUA       0.047700
     26 H061       -23.7820    23.9420   -26.6710 h1         1 IUA       0.047700
     27 H121       -22.7510    32.3370   -25.2460 ha         1 IUA       0.114000
     28 H141       -26.6290    33.6370   -26.6220 ha         1 IUA       0.114000
     29 H161       -26.3340    30.9640   -23.2470 ha         1 IUA       0.114000
     30 H051       -21.6520    25.6690   -25.7940 hn         1 IUA       0.516000
     31 Cl01       -27.0320    26.3130   -23.5150 cl         1 IUA      -0.149000
@<TRIPOS>BOND
     1     1    10 1   
     2     1    16 1   
     3     1    19 1   
     4     1    20 1   
     5     2    11 ar  
     6     2    12 ar  
     7     2    21 1   
     8     3    12 ar  
     9     3    13 ar  
    10     3    22 1   
    11     4    16 1   
    12     4    17 2   
    13     4    23 1   
    14     5    14 ar  
    15     5    18 ar  
    16     5    31 1   
    17     6     8 ar  
    18     6    14 ar  
    19     6    15 1   
    20     7    15 1   
    21     7    24 1   
    22     7    25 1   
    23     7    26 1   
    24     8     9 ar  
    25     8    17 1   
    26     9    16 1   
    27     9    18 ar  
    28    10    11 ar  
    29    10    13 ar  
    30    11    27 1   
    31    12    28 1   
    32    13    29 1   
    33    15    30 1   
@<TRIPOS>SUBSTRUCTURE
     1 IUA         1 TEMP              0 ****  ****    0 ROOT
