@<TRIPOS>MOLECULE
IUC
   40    42     1     0     0
SMALL
No Charge or Current Charge


@<TRIPOS>ATOM
      1 C2         -21.6470    26.0660     1.7660 ca         1 IUC      -0.035000
      2 C3         -22.5840    26.4230     0.7750 ca         1 IUC      -0.137600
      3 C4         -23.9220    25.9880     0.9140 ca         1 IUC      -0.033000
      4 C5         -24.3290    25.2430     2.0430 ca         1 IUC      -0.155200
      5 C6         -23.3820    24.9270     3.0460 ca         1 IUC       0.033100
      6 N8         -25.7510    24.8100     2.1470 no         1 IUC       0.694200
      7 O9         -26.6190    25.6240     1.8060 o          1 IUC      -0.377500
      8 C11        -22.1220    27.1980    -0.4390 c          1 IUC       0.614700
      9 C1         -22.0470    25.3350     2.8960 ca         1 IUC      -0.099000
     10 Br7        -23.8580    23.9840     4.6530 br         1 IUC      -0.025100
     11 O10        -25.9780    23.6110     2.3530 o          1 IUC      -0.377500
     12 O12        -20.9900    27.0400    -0.8810 o          1 IUC      -0.581100
     13 N13        -23.0490    28.0280    -1.1080 n          1 IUC      -0.401800
     14 C14        -22.7540    28.5800    -2.4620 c6         1 IUC       0.090500
     15 C15        -24.0400    28.8680    -0.3690 c6         1 IUC       0.090500
     16 C16        -22.3120    30.0670    -2.4130 c6         1 IUC       0.164800
     17 C17        -23.6240    30.3650    -0.3170 c6         1 IUC       0.164800
     18 N18        -23.3010    30.9040    -1.6700 nh         1 IUC      -0.770400
     19 C19        -23.4250    32.2990    -1.9260 ca         1 IUC       0.226000
     20 C20        -22.2850    33.0600    -2.2630 ca         1 IUC      -0.133000
     21 C21        -22.3860    34.4400    -2.5150 ca         1 IUC      -0.106000
     22 C22        -23.6320    35.0830    -2.4350 ca         1 IUC      -0.101000
     23 C23        -24.7790    34.3430    -2.1030 ca         1 IUC      -0.136000
     24 C24        -24.6800    32.9640    -1.8490 ca         1 IUC       0.156000
     25 F25        -25.8120    32.2800    -1.5500 f          1 IUC      -0.176000
     26 H1         -20.6060    26.3720     1.6710 ha         1 IUC       0.141000
     27 H2         -24.6460    26.2060     0.1300 ha         1 IUC       0.155000
     28 H3         -21.3160    25.0890     3.6640 ha         1 IUC       0.144000
     29 H4         -23.6620    28.5030    -3.0760 h1         1 IUC       0.070700
     30 H5         -21.9800    27.9840    -2.9660 h1         1 IUC       0.070700
     31 H6         -25.0170    28.7860    -0.8680 h1         1 IUC       0.070700
     32 H7         -24.1700    28.5190     0.6630 h1         1 IUC       0.070700
     33 H8         -21.3260    30.1300    -1.9290 h1         1 IUC       0.049700
     34 H9         -22.2000    30.4320    -3.4450 h1         1 IUC       0.049700
     35 H10        -22.7450    30.4640     0.3370 h1         1 IUC       0.049700
     36 H11        -24.4380    30.9390     0.1500 h1         1 IUC       0.049700
     37 H12        -21.3090    32.5860    -2.3190 ha         1 IUC       0.117000
     38 H13        -21.4970    35.0120    -2.7700 ha         1 IUC       0.118000
     39 H14        -23.7080    36.1510    -2.6310 ha         1 IUC       0.120000
     40 H15        -25.7460    34.8350    -2.0440 ha         1 IUC       0.133000
@<TRIPOS>BOND
     1     1     2 ar  
     2     1     9 ar  
     3     1    26 1   
     4     2     3 ar  
     5     2     8 1   
     6     3     4 ar  
     7     3    27 1   
     8     4     5 ar  
     9     4     6 1   
    10     5     9 ar  
    11     5    10 1   
    12     6     7 1   
    13     6    11 1   
    14     8    12 2   
    15     8    13 1   
    16     9    28 1   
    17    13    14 1   
    18    13    15 1   
    19    14    16 1   
    20    14    29 1   
    21    14    30 1   
    22    15    17 1   
    23    15    31 1   
    24    15    32 1   
    25    16    18 1   
    26    16    33 1   
    27    16    34 1   
    28    17    18 1   
    29    17    35 1   
    30    17    36 1   
    31    18    19 1   
    32    19    20 ar  
    33    19    24 ar  
    34    20    21 ar  
    35    20    37 1   
    36    21    22 ar  
    37    21    38 1   
    38    22    23 ar  
    39    22    39 1   
    40    23    24 ar  
    41    23    40 1   
    42    24    25 1   
@<TRIPOS>SUBSTRUCTURE
     1 IUC         1 TEMP              0 ****  ****    0 ROOT
