@<TRIPOS>MOLECULE
IUC
   40    42     1     0     0
SMALL
bcc


@<TRIPOS>ATOM
      1 C2         -21.8130    26.5130     1.7760 ca         1 IUC      -0.053000
      2 C3         -22.7050    26.5600     0.7120 ca         1 IUC      -0.137600
      3 C4         -23.9310    25.9260     0.8300 ca         1 IUC      -0.051000
      4 C5         -24.2450    25.2360     1.9890 ca         1 IUC      -0.155200
      5 C6         -23.3640    25.2010     3.0660 ca         1 IUC       0.033100
      6 N8         -25.5320    24.5510     2.0100 no         1 IUC       0.314200
      7 O9         -26.4770    25.1450     1.5520 o          1 IUC      -0.187500
      8 C11        -22.2700    27.1690    -0.5880 c          1 IUC       0.681700
      9 C1         -22.1490    25.8650     2.9510 ca         1 IUC      -0.117000
     10 BR7        -23.7610    24.3670     4.6970 br         1 IUC      -0.025100
     11 O10        -25.5670    23.4320     2.4550 o          1 IUC      -0.187500
     12 O12        -21.2140    26.8020    -1.0780 o          1 IUC      -0.581100
     13 N13        -23.1060    28.0510    -1.1710 n          1 IUC      -0.468800
     14 C14        -22.8190    28.5740    -2.4950 c6         1 IUC       0.090500
     15 C15        -24.1200    28.8250    -0.4740 c6         1 IUC       0.090500
     16 C16        -22.4130    30.0370    -2.4250 c6         1 IUC       0.164800
     17 C17        -23.7130    30.2900    -0.4240 c6         1 IUC       0.164800
     18 N18        -23.4620    30.7950    -1.7680 nh         1 IUC      -0.632000
     19 C19        -23.4100    32.1890    -1.8980 ca         1 IUC       0.087600
     20 C20        -22.2560    32.8930    -2.2440 ca         1 IUC      -0.151000
     21 C21        -22.2700    34.2730    -2.4030 ca         1 IUC      -0.124000
     22 C22        -23.4370    34.9900    -2.2000 ca         1 IUC      -0.119000
     23 C23        -24.6020    34.3160    -1.8530 ca         1 IUC      -0.154000
     24 C24        -24.5720    32.9460    -1.7220 ca         1 IUC       0.120900
     25 F25        -25.7160    32.3050    -1.4250 f          1 IUC      -0.140900
     26 H1         -20.8490    26.9980     1.7020 ha         1 IUC       0.159000
     27 H2         -24.6340    25.9400     0.0070 ha         1 IUC       0.173000
     28 H3         -21.4570    25.8710     3.7820 ha         1 IUC       0.162000
     29 H4         -23.7240    28.4770    -3.1010 h1         1 IUC       0.070700
     30 H5         -22.0330    27.9870    -2.9620 h1         1 IUC       0.070700
     31 H6         -25.0740    28.7210    -0.9970 h1         1 IUC       0.070700
     32 H7         -24.2560    28.4660     0.5420 h1         1 IUC       0.070700
     33 H8         -21.4470    30.1180    -1.9050 h1         1 IUC       0.049700
     34 H9         -22.2750    30.4110    -3.4410 h1         1 IUC       0.049700
     35 H10        -22.8180    30.3910     0.2070 h1         1 IUC       0.049700
     36 H11        -24.5130    30.8520     0.0530 h1         1 IUC       0.049700
     37 H12        -21.3280    32.3580    -2.3930 ha         1 IUC       0.135000
     38 H13        -21.3570    34.7850    -2.6770 ha         1 IUC       0.136000
     39 H14        -23.4530    36.0660    -2.3170 ha         1 IUC       0.138000
     40 H15        -25.5340    34.8470    -1.7060 ha         1 IUC       0.151000
@<TRIPOS>BOND
     1     1     2 ar  
     2     1     9 ar  
     3     1    26 1   
     4     2     3 ar  
     5     2     8 1   
     6     3     4 ar  
     7     3    27 1   
     8     4     5 ar  
     9     4     6 1   
    10     5     9 ar  
    11     5    10 1   
    12     6     7 1   
    13     6    11 1   
    14     8    12 2   
    15     8    13 1   
    16     9    28 1   
    17    13    14 1   
    18    13    15 1   
    19    14    16 1   
    20    14    29 1   
    21    14    30 1   
    22    15    17 1   
    23    15    31 1   
    24    15    32 1   
    25    16    18 1   
    26    16    33 1   
    27    16    34 1   
    28    17    18 1   
    29    17    35 1   
    30    17    36 1   
    31    18    19 1   
    32    19    20 ar  
    33    19    24 ar  
    34    20    21 ar  
    35    20    37 1   
    36    21    22 ar  
    37    21    38 1   
    38    22    23 ar  
    39    22    39 1   
    40    23    24 ar  
    41    23    40 1   
    42    24    25 1   
@<TRIPOS>SUBSTRUCTURE
     1 IUC         1 TEMP              0 ****  ****    0 ROOT
