@<TRIPOS>MOLECULE
IUD
   56    60     1     0     0
SMALL
No Charge or Current Charge


@<TRIPOS>ATOM
      1 C10         67.4180   108.6050   118.3370 ca         1 IUD      -0.082000
      2 C13         65.0760   109.1760   119.7480 ca         1 IUD      -0.087000
      3 C17         66.3570   105.1970   119.4940 cp         1 IUD      -0.172000
      4 C20         67.3720   101.6940   120.6070 ca         1 IUD       0.199500
      5 C21         67.3500   100.9890   119.3970 ca         1 IUD      -0.199000
      6 C22         66.9930   101.6570   118.2180 ca         1 IUD       0.199500
      7 C26         67.7580   111.0550   117.7910 cp         1 IUD      -0.137000
      8 C28         67.7860   112.9720   116.2610 ca         1 IUD      -0.155000
      9 C01         70.7920   105.5760   118.2570 c6         1 IUD      -0.102900
     10 C02         69.4160   105.1360   118.8110 c6         1 IUD       0.218800
     11 C04         68.3120   105.7760   116.6660 c6         1 IUD       0.218800
     12 C05         69.6720   106.2140   116.0690 c6         1 IUD      -0.102900
     13 C06         70.8640   105.4670   116.7140 c6         1 IUD       0.162500
     14 C08         67.1220   106.1990   118.8450 ca         1 IUD       0.380000
     15 C09         66.6910   107.5470   118.9380 ca         1 IUD      -0.099000
     16 C11         66.9900   109.9490   118.4370 cp         1 IUD      -0.057000
     17 C12         65.7980   110.2160   119.1420 ca         1 IUD      -0.084000
     18 C14         65.5100   107.8410   119.6610 ca         1 IUD       0.284000
     19 C16         65.2090   105.6070   120.1950 ca         1 IUD       0.388900
     20 C18         66.6990   103.7480   119.4570 cp         1 IUD       0.028000
     21 C19         67.0470   103.0590   120.6410 ca         1 IUD      -0.166500
     22 C23         66.6660   103.0200   118.2450 ca         1 IUD      -0.166500
     23 C27         67.0940   111.9320   116.9000 ca         1 IUD      -0.038000
     24 C29         69.1550   113.1580   116.5010 ca         1 IUD      -0.031000
     25 C30         69.8390   112.3080   117.3900 ca         1 IUD      -0.063000
     26 C31         69.1430   111.2610   118.0380 ca         1 IUD       0.194100
     27 C33         71.2390   112.5290   117.6280 cg         1 IUD       0.338000
     28 F25         67.7110   101.0560   121.7480 f          1 IUD      -0.169000
     29 N03         68.3230   105.8950   118.1490 nh         1 IUD      -0.853400
     30 N07         70.9070   104.0540   116.2760 n8         1 IUD      -0.995200
     31 N15         64.7890   106.8840   120.2770 nb         1 IUD      -0.669000
     32 N34         72.3770   112.7220   117.8100 n1         1 IUD      -0.454000
     33 O32         69.7990   110.4610   118.9340 oh         1 IUD      -0.521100
     34 H1          68.3220   108.3960   117.7740 ha         1 IUD       0.132000
     35 H2          64.1680   109.4070   120.2970 ha         1 IUD       0.137000
     36 H3          67.6030    99.9330   119.3730 ha         1 IUD       0.153000
     37 H4          67.2590   113.6330   115.5750 ha         1 IUD       0.126000
     38 H5          71.5900   104.9830   118.7240 hc         1 IUD       0.056950
     39 H6          70.9740   106.6180   118.5520 hc         1 IUD       0.056950
     40 H7          69.3960   105.3110   119.8970 h1         1 IUD       0.040950
     41 H8          69.2860   104.0560   118.6500 h1         1 IUD       0.040950
     42 H9          67.5160   106.4030   116.2370 h1         1 IUD       0.040950
     43 H10         68.1040   104.7380   116.3710 h1         1 IUD       0.040950
     44 H11         69.6680   106.0610   114.9820 hc         1 IUD       0.056950
     45 H12         69.8010   107.2930   116.2230 hc         1 IUD       0.056950
     46 H13         71.8000   105.9380   116.3720 h1         1 IUD       0.066700
     47 H14         65.4390   111.2390   119.2300 ha         1 IUD       0.124000
     48 H15         64.5900   104.8700   120.7060 h4         1 IUD       0.024100
     49 H16         67.0750   103.5890   121.5890 ha         1 IUD       0.141500
     50 H17         66.3820   103.5190   117.3240 ha         1 IUD       0.141500
     51 H18         66.0340   111.7940   116.6960 ha         1 IUD       0.121000
     52 H19         69.6830   113.9670   115.9980 ha         1 IUD       0.129000
     53 H20         71.6810   103.5820   116.7570 hn         1 IUD       0.393000
     54 H21         70.0720   103.5810   116.6360 hn         1 IUD       0.393000
     55 H23         69.1330   109.8720   119.3450 ho         1 IUD       0.483000
     56 F24         66.9620   100.9820   117.0480 f          1 IUD      -0.169000
@<TRIPOS>BOND
     1     1    15 ar  
     2     1    16 ar  
     3     1    34 1   
     4     2    17 ar  
     5     2    18 ar  
     6     2    35 1   
     7     3    14 ar  
     8     3    19 ar  
     9     3    20 1   
    10     4     5 ar  
    11     4    21 ar  
    12     4    28 1   
    13     5     6 ar  
    14     5    36 1   
    15     6    22 ar  
    16     6    56 1   
    17     7    16 1   
    18     7    23 ar  
    19     7    26 ar  
    20     8    23 ar  
    21     8    24 ar  
    22     8    37 1   
    23     9    10 1   
    24     9    13 1   
    25     9    38 1   
    26     9    39 1   
    27    10    29 1   
    28    10    40 1   
    29    10    41 1   
    30    11    12 1   
    31    11    29 1   
    32    11    42 1   
    33    11    43 1   
    34    12    13 1   
    35    12    44 1   
    36    12    45 1   
    37    13    30 1   
    38    13    46 1   
    39    14    15 ar  
    40    14    29 1   
    41    15    18 ar  
    42    16    17 ar  
    43    17    47 1   
    44    18    31 ar  
    45    19    31 ar  
    46    19    48 1   
    47    20    21 ar  
    48    20    22 ar  
    49    21    49 1   
    50    22    50 1   
    51    23    51 1   
    52    24    25 ar  
    53    24    52 1   
    54    25    26 ar  
    55    25    27 1   
    56    26    33 1   
    57    27    32 3   
    58    30    53 1   
    59    30    54 1   
    60    33    55 1   
@<TRIPOS>SUBSTRUCTURE
     1 IUD         1 TEMP              0 ****  ****    0 ROOT
