@<TRIPOS>MOLECULE
IUD
   56    60     1     0     0
SMALL
bcc


@<TRIPOS>ATOM
      1 C10         67.4560   108.5880   118.3150 ca         1 IUD      -0.100000
      2 C13         65.1080   109.1530   119.6930 ca         1 IUD      -0.170300
      3 C17         66.4810   105.2330   119.5830 cp         1 IUD      -0.237300
      4 C20         67.2910   101.7080   120.5670 ca         1 IUD       0.164400
      5 C21         67.2460   101.0290   119.3650 ca         1 IUD      -0.217000
      6 C22         66.9380   101.7730   118.2420 ca         1 IUD       0.164400
      7 C26         67.7280   110.9870   117.7150 cp         1 IUD      -0.137000
      8 C28         67.7340   112.8580   116.1600 ca         1 IUD      -0.173000
      9 C01         70.7640   105.4360   118.3180 c6         1 IUD      -0.102900
     10 C02         69.3750   104.9890   118.7590 c6         1 IUD       0.218800
     11 C04         68.4000   105.9520   116.7360 c6         1 IUD       0.218800
     12 C05         69.7750   106.3630   116.2280 c6         1 IUD      -0.102900
     13 C06         70.8820   105.4730   116.7890 c6         1 IUD       0.162500
     14 C08         67.2130   106.1720   118.8770 ca         1 IUD       0.241600
     15 C09         66.7530   107.5280   118.9260 ca         1 IUD      -0.164300
     16 C11         66.9940   109.8820   118.3710 cp         1 IUD      -0.057000
     17 C12         65.7890   110.1540   119.0610 ca         1 IUD      -0.102000
     18 C14         65.5810   107.8220   119.6590 ca         1 IUD       0.414600
     19 C16         65.3570   105.6630   120.3250 ca         1 IUD       0.454200
     20 C18         66.7550   103.7830   119.5170 cp         1 IUD       0.028000
     21 C19         67.0500   103.0640   120.6720 ca         1 IUD      -0.184500
     22 C23         66.6850   103.1290   118.2880 ca         1 IUD      -0.184500
     23 C27         67.0810   111.8140   116.8030 ca         1 IUD      -0.056000
     24 C29         69.0670   113.0950   116.4350 ca         1 IUD      -0.049000
     25 C30         69.7340   112.2920   117.3590 ca         1 IUD      -0.063000
     26 C31         69.0740   111.2400   118.0080 ca         1 IUD       0.194100
     27 C33         71.1000   112.5420   117.6690 cg         1 IUD       0.248800
     28 F25         67.5890   101.0170   121.6740 f          1 IUD      -0.133900
     29 N03         68.3830   105.8860   118.1920 nh         1 IUD      -0.715000
     30 N07         70.8520   104.1610   116.1490 n8         1 IUD      -0.884800
     31 N15         64.9020   106.8830   120.3620 nb         1 IUD      -0.669000
     32 N34         72.2070   112.7600   117.9070 n1         1 IUD      -0.364800
     33 O32         69.7920   110.5420   118.8920 oh         1 IUD      -0.482100
     34 H1          68.3720   108.3680   117.7820 ha         1 IUD       0.150000
     35 H2          64.2020   109.3620   120.2460 ha         1 IUD       0.155000
     36 H3          67.4390    99.9660   119.3060 ha         1 IUD       0.171000
     37 H4          67.2050   113.4760   115.4490 ha         1 IUD       0.144000
     38 H5          71.5090   104.7540   118.7360 hc         1 IUD       0.056950
     39 H6          70.9690   106.4280   118.7290 hc         1 IUD       0.056950
     40 H7          69.3030   105.0240   119.8460 h1         1 IUD       0.040950
     41 H8          69.2150   103.9440   118.4640 h1         1 IUD       0.040950
     42 H9          67.6440   106.6560   116.3890 h1         1 IUD       0.040950
     43 H10         68.1170   104.9760   116.3130 h1         1 IUD       0.040950
     44 H11         69.7830   106.3260   115.1370 hc         1 IUD       0.056950
     45 H12         69.9690   107.3990   116.5190 hc         1 IUD       0.056950
     46 H13         71.8440   105.9250   116.5310 h1         1 IUD       0.066700
     47 H14         65.4220   111.1720   119.1090 ha         1 IUD       0.142000
     48 H15         64.7960   104.9190   120.8850 h4         1 IUD       0.024100
     49 H16         67.1120   103.5570   121.6340 ha         1 IUD       0.159500
     50 H17         66.4280   103.6660   117.3840 ha         1 IUD       0.159500
     51 H18         66.0390   111.6230   116.5790 ha         1 IUD       0.139000
     52 H19         69.5990   113.8990   115.9460 ha         1 IUD       0.147000
     53 H20         71.5950   103.5870   116.5290 hn         1 IUD       0.337800
     54 H21         69.9940   103.6720   116.3770 hn         1 IUD       0.337800
     55 H23         69.2430   109.9070   119.3720 ho         1 IUD       0.444000
     56 F24         66.8780   101.1460   117.0610 f          1 IUD      -0.133900
@<TRIPOS>BOND
     1     1    15 ar  
     2     1    16 ar  
     3     1    34 1   
     4     2    17 ar  
     5     2    18 ar  
     6     2    35 1   
     7     3    14 ar  
     8     3    19 ar  
     9     3    20 1   
    10     4     5 ar  
    11     4    21 ar  
    12     4    28 1   
    13     5     6 ar  
    14     5    36 1   
    15     6    22 ar  
    16     6    56 1   
    17     7    16 1   
    18     7    23 ar  
    19     7    26 ar  
    20     8    23 ar  
    21     8    24 ar  
    22     8    37 1   
    23     9    10 1   
    24     9    13 1   
    25     9    38 1   
    26     9    39 1   
    27    10    29 1   
    28    10    40 1   
    29    10    41 1   
    30    11    12 1   
    31    11    29 1   
    32    11    42 1   
    33    11    43 1   
    34    12    13 1   
    35    12    44 1   
    36    12    45 1   
    37    13    30 1   
    38    13    46 1   
    39    14    15 ar  
    40    14    29 1   
    41    15    18 ar  
    42    16    17 ar  
    43    17    47 1   
    44    18    31 ar  
    45    19    31 ar  
    46    19    48 1   
    47    20    21 ar  
    48    20    22 ar  
    49    21    49 1   
    50    22    50 1   
    51    23    51 1   
    52    24    25 ar  
    53    24    52 1   
    54    25    26 ar  
    55    25    27 1   
    56    26    33 1   
    57    27    32 3   
    58    30    53 1   
    59    30    54 1   
    60    33    55 1   
@<TRIPOS>SUBSTRUCTURE
     1 IUD         1 TEMP              0 ****  ****    0 ROOT
