@<TRIPOS>MOLECULE
IUE
   34    36     1     0     0
SMALL
abcg2


@<TRIPOS>ATOM
      1 N1         110.3710    91.9840    74.6380 ns         1 IUE      -0.477900
      2 C7         117.0480    93.9890    74.4790 ca         1 IUE       0.011000
      3 C8         117.6110    92.7260    71.1050 c3         1 IUE       0.157900
      4 N2         113.3140    94.1120    76.9740 nv         1 IUE      -0.923000
      5 C9         111.1290    92.8010    75.4070 c          1 IUE       0.656300
      6 O1         110.6890    93.2980    76.4430 o          1 IUE      -0.630100
      7 C1         116.0300    94.1390    75.3990 ca         1 IUE       0.057700
      8 C5         114.6420    93.1020    73.7330 ca         1 IUE       0.459300
      9 C6         116.8040    93.4050    73.2120 ca         1 IUE       0.628300
     10 C4         112.4900    93.0610    74.9520 cc         1 IUE      -0.284600
     11 C3         113.4930    93.6190    75.7210 cd         1 IUE       0.273800
     12 C2         114.7580    93.6480    75.0140 ca         1 IUE      -0.202800
     13 N          115.6210    92.9840    72.8470 nb         1 IUE      -0.745000
     14 O          117.8320    93.3030    72.3880 os         1 IUE      -0.438300
     15 C10        109.0400    91.6340    75.0130 cx         1 IUE       0.044700
     16 C11        107.9300    92.5940    74.7210 cx         1 IUE      -0.132400
     17 C12        108.0760    91.3450    73.9090 cx         1 IUE      -0.132400
     18 S          113.0380    92.6020    73.3540 ss         1 IUE      -0.109900
     19 CL         118.6620    94.5030    74.8120 cl         1 IUE      -0.167000
     20 H1         110.8130    91.3980    73.9450 hn         1 IUE       0.317500
     21 H2         118.5740    92.7470    70.6040 h1         1 IUE       0.052033
     22 H3         117.2640    91.6950    71.1850 h1         1 IUE       0.052033
     23 H4         116.8870    93.3000    70.5270 h1         1 IUE       0.052033
     24 H5         112.4050    93.9350    77.3760 hn         1 IUE       0.485500
     25 H6         114.0770    94.0390    77.6240 hn         1 IUE       0.485500
     26 H7         115.4840    95.5340    76.9290 hc         1 IUE       0.061367
     27 H8         116.2540    94.0620    77.5280 hc         1 IUE       0.061367
     28 H9         117.2170    95.3090    76.7620 hc         1 IUE       0.061367
     29 H10        108.9500    91.0360    75.9140 h1         1 IUE       0.083700
     30 H11        108.1950    93.5320    74.2520 hc         1 IUE       0.077450
     31 H12        107.1190    92.6590    75.4350 hc         1 IUE       0.077450
     32 H13        108.4330    91.4430    72.8910 hc         1 IUE       0.077450
     33 H14        107.3680    90.5410    74.0590 hc         1 IUE       0.077450
     34 C          116.2600    94.7990    76.7220 c3         1 IUE      -0.068800
@<TRIPOS>BOND
     1     1     5 1   
     2     1    15 1   
     3     1    20 1   
     4     2     7 ar  
     5     2     9 ar  
     6     2    19 1   
     7     3    14 1   
     8     3    21 1   
     9     3    22 1   
    10     3    23 1   
    11     4    11 1   
    12     4    24 1   
    13     4    25 1   
    14     5     6 2   
    15     5    10 1   
    16     7    12 ar  
    17     7    34 1   
    18     8    12 ar  
    19     8    13 ar  
    20     8    18 1   
    21     9    13 ar  
    22     9    14 1   
    23    10    11 2   
    24    10    18 1   
    25    11    12 1   
    26    15    16 1   
    27    15    17 1   
    28    15    29 1   
    29    16    17 1   
    30    16    30 1   
    31    16    31 1   
    32    17    32 1   
    33    17    33 1   
    34    26    34 1   
    35    27    34 1   
    36    28    34 1   
@<TRIPOS>SUBSTRUCTURE
     1 IUE         1 TEMP              0 ****  ****    0 ROOT
