@<TRIPOS>MOLECULE
IUE
   34    36     1     0     0
SMALL
No Charge or Current Charge


@<TRIPOS>ATOM
      1 N1         110.3070    92.0790    74.7740 ns         1 IUE      -0.477900
      2 C7         117.0810    94.0540    74.4420 ca         1 IUE       0.011000
      3 C8         117.6180    92.7210    70.9860 c3         1 IUE       0.157900
      4 N2         113.3800    93.9870    77.0750 nv         1 IUE      -0.923000
      5 C9         111.1420    92.7010    75.6710 c          1 IUE       0.656300
      6 O1         110.7720    93.0110    76.7970 o          1 IUE      -0.630100
      7 C1         116.0470    94.1640    75.4090 ca         1 IUE       0.057700
      8 C5         114.6270    93.0360    73.8040 ca         1 IUE       0.459300
      9 C6         116.8050    93.4330    73.1970 ca         1 IUE       0.628300
     10 C4         112.5000    92.9370    75.1240 cc         1 IUE      -0.284600
     11 C3         113.5410    93.5400    75.8030 cd         1 IUE       0.273800
     12 C2         114.7900    93.6130    75.0500 ca         1 IUE      -0.202800
     13 N          115.5910    92.9340    72.8770 nb         1 IUE      -0.745000
     14 O          117.8240    93.3390    72.2710 os         1 IUE      -0.438300
     15 C10        108.9370    91.7320    75.0330 cx         1 IUE       0.044700
     16 C11        107.8670    92.6270    74.4570 cx         1 IUE      -0.132400
     17 C12        108.1040    91.2570    73.8690 cx         1 IUE      -0.132400
     18 S          112.9880    92.4240    73.4840 ss         1 IUE      -0.109900
     19 Cl         118.7180    94.6720    74.7540 cl         1 IUE      -0.167000
     20 H1         110.7150    91.8630    73.8740 hn         1 IUE       0.317500
     21 H2         118.5440    92.7450    70.3980 h1         1 IUE       0.052033
     22 H3         117.3150    91.6720    71.0980 h1         1 IUE       0.052033
     23 H4         116.8420    93.2490    70.4160 h1         1 IUE       0.052033
     24 H5         112.4860    93.7880    77.5290 hn         1 IUE       0.485500
     25 H6         114.1820    94.1280    77.6800 hn         1 IUE       0.485500
     26 H7         115.5320    95.6220    76.9450 hc         1 IUE       0.061367
     27 H8         116.2450    94.1170    77.5780 hc         1 IUE       0.061367
     28 H9         117.2520    95.3490    76.8330 hc         1 IUE       0.061367
     29 H10        108.7600    91.2790    76.0100 h1         1 IUE       0.083700
     30 H11        108.1820    93.4910    73.8770 hc         1 IUE       0.077450
     31 H12        106.9670    92.7780    75.0470 hc         1 IUE       0.077450
     32 H13        108.5730    91.2000    72.8890 hc         1 IUE       0.077450
     33 H14        107.3610    90.4870    74.0620 hc         1 IUE       0.077450
     34 C          116.2840    94.8460    76.7600 c3         1 IUE      -0.068800
@<TRIPOS>BOND
     1     1     5 1   
     2     1    15 1   
     3     1    20 1   
     4     2     7 ar  
     5     2     9 ar  
     6     2    19 1   
     7     3    14 1   
     8     3    21 1   
     9     3    22 1   
    10     3    23 1   
    11     4    11 1   
    12     4    24 1   
    13     4    25 1   
    14     5     6 2   
    15     5    10 1   
    16     7    12 ar  
    17     7    34 1   
    18     8    12 ar  
    19     8    13 ar  
    20     8    18 1   
    21     9    13 ar  
    22     9    14 1   
    23    10    11 2   
    24    10    18 1   
    25    11    12 1   
    26    15    16 1   
    27    15    17 1   
    28    15    29 1   
    29    16    17 1   
    30    16    30 1   
    31    16    31 1   
    32    17    32 1   
    33    17    33 1   
    34    26    34 1   
    35    27    34 1   
    36    28    34 1   
@<TRIPOS>SUBSTRUCTURE
     1 IUE         1 TEMP              0 ****  ****    0 ROOT
