@<TRIPOS>MOLECULE
IUH
   30    32     1     0     0
SMALL
No Charge or Current Charge


@<TRIPOS>ATOM
      1 C10        -22.4190    30.3410   -23.7500 c3         1 IUH       0.132900
      2 C13        -24.6350    31.7950   -26.5450 ca         1 IUH       0.338400
      3 C15        -25.3460    32.6950   -24.5340 ca         1 IUH       0.338400
      4 C17        -21.0260    28.6040   -25.0590 cc         1 IUH       0.405700
      5 C02        -24.7780    26.6070   -23.7590 ca         1 IUH       0.285000
      6 C04        -23.0680    25.7050   -24.9900 ca         1 IUH       0.456900
      7 C06        -23.0740    23.2820   -25.8550 c3         1 IUH       0.222100
      8 C07        -22.3980    26.9430   -24.9080 ca         1 IUH      -0.105600
      9 C08        -23.0050    27.9650   -24.2210 ca         1 IUH       0.134500
     10 C11        -23.4880    31.1290   -24.5070 ca         1 IUH      -0.064300
     11 C12        -23.6320    31.0460   -25.9070 ca         1 IUH      -0.151000
     12 C16        -24.3700    31.9800   -23.8170 ca         1 IUH      -0.151000
     13 N03        -24.2720    25.5340   -24.4100 nb         1 IUH      -0.283000
     14 N05        -22.5070    24.6310   -25.6720 nu         1 IUH      -0.907100
     15 N09        -22.1350    29.0110   -24.3170 na         1 IUH      -0.285300
     16 N14        -25.4850    32.6100   -25.8770 nb         1 IUH      -0.659000
     17 N18        -21.1560    27.3180   -25.4410 nd         1 IUH      -0.546100
     18 N19        -24.2070    27.8260   -23.6300 nb         1 IUH      -0.201000
     19 H101       -22.7320    30.2110   -22.7060 h1         1 IUH       0.076200
     20 H102       -21.4900    30.9250   -23.7410 h1         1 IUH       0.076200
     21 H131       -24.7630    31.7430   -27.6250 h4         1 IUH       0.022100
     22 H151       -26.0390    33.3570   -24.0150 h4         1 IUH       0.022100
     23 H171       -20.1950    29.2630   -25.2810 h5         1 IUH       0.069800
     24 H062       -22.3920    22.6520   -26.4420 h1         1 IUH       0.049033
     25 H063       -23.2410    22.7980   -24.8840 h1         1 IUH       0.049033
     26 H061       -24.0350    23.3360   -26.3850 h1         1 IUH       0.049033
     27 H121       -22.9810    30.4140   -26.5040 ha         1 IUH       0.125500
     28 H161       -24.3100    32.0910   -22.7380 ha         1 IUH       0.125500
     29 H051       -21.5950    24.8350   -26.0870 hn         1 IUH       0.517000
     30 Cl01       -26.3480    26.3930   -23.0010 cl         1 IUH      -0.143000
@<TRIPOS>BOND
     1     1    10 1   
     2     1    15 1   
     3     1    19 1   
     4     1    20 1   
     5     2    11 ar  
     6     2    16 ar  
     7     2    21 1   
     8     3    12 ar  
     9     3    16 ar  
    10     3    22 1   
    11     4    15 1   
    12     4    17 2   
    13     4    23 1   
    14     5    13 ar  
    15     5    18 ar  
    16     5    30 1   
    17     6     8 ar  
    18     6    13 ar  
    19     6    14 1   
    20     7    14 1   
    21     7    24 1   
    22     7    25 1   
    23     7    26 1   
    24     8     9 ar  
    25     8    17 1   
    26     9    15 1   
    27     9    18 ar  
    28    10    11 ar  
    29    10    12 ar  
    30    11    27 1   
    31    12    28 1   
    32    14    29 1   
@<TRIPOS>SUBSTRUCTURE
     1 IUH         1 TEMP              0 ****  ****    0 ROOT
