@<TRIPOS>MOLECULE
IUH
   30    32     1     0     0
SMALL
abcg2


@<TRIPOS>ATOM
      1 C10        -22.5150    30.3120   -23.6950 c3         1 IUH       0.132900
      2 C13        -24.7730    31.6320   -26.4590 ca         1 IUH       0.338400
      3 C15        -25.1400    32.8810   -24.5870 ca         1 IUH       0.338400
      4 C17        -21.0870    28.6540   -24.9720 cc         1 IUH       0.405700
      5 C02        -24.7200    26.5720   -23.8890 ca         1 IUH       0.285000
      6 C04        -22.9740    25.6730   -25.0810 ca         1 IUH       0.456900
      7 C06        -23.0600    23.3390   -25.8570 c3         1 IUH       0.222100
      8 C07        -22.3350    26.9280   -24.9580 ca         1 IUH      -0.105600
      9 C08        -23.0260    27.9110   -24.2580 ca         1 IUH       0.134500
     10 C11        -23.5440    31.0970   -24.4750 ca         1 IUH      -0.064300
     11 C12        -23.8340    30.8400   -25.8090 ca         1 IUH      -0.151000
     12 C16        -24.2210    32.1440   -23.8550 ca         1 IUH      -0.151000
     13 N03        -24.1970    25.5340   -24.5200 nb         1 IUH      -0.283000
     14 N05        -22.4240    24.6380   -25.7180 nu         1 IUH      -0.907100
     15 N09        -22.2130    29.0150   -24.2680 na         1 IUH      -0.285300
     16 N14        -25.4230    32.6400   -25.8720 nb         1 IUH      -0.659000
     17 N18        -21.1190    27.4140   -25.3990 nd         1 IUH      -0.546100
     18 N19        -24.2390    27.7830   -23.6950 nb         1 IUH      -0.201000
     19 H101       -22.8590    30.1700   -22.6700 h1         1 IUH       0.076200
     20 H102       -21.5810    30.8750   -23.6490 h1         1 IUH       0.076200
     21 H131       -25.0110    31.4420   -27.5000 h4         1 IUH       0.022100
     22 H151       -25.6770    33.6990   -24.1180 h4         1 IUH       0.022100
     23 H171       -20.2830    29.3570   -25.1280 h5         1 IUH       0.069800
     24 H062       -22.3830    22.6900   -26.4070 h1         1 IUH       0.049033
     25 H063       -23.2640    22.8980   -24.8800 h1         1 IUH       0.049033
     26 H061       -24.0020    23.4190   -26.4020 h1         1 IUH       0.049033
     27 H121       -23.3470    30.0380   -26.3470 ha         1 IUH       0.125500
     28 H161       -24.0410    32.3820   -22.8140 ha         1 IUH       0.125500
     29 H051       -21.5140    24.7760   -26.1260 hn         1 IUH       0.517000
     30 CL01       -26.3160    26.2850   -23.2010 cl         1 IUH      -0.143000
@<TRIPOS>BOND
     1     1    10 1   
     2     1    15 1   
     3     1    19 1   
     4     1    20 1   
     5     2    11 ar  
     6     2    16 ar  
     7     2    21 1   
     8     3    12 ar  
     9     3    16 ar  
    10     3    22 1   
    11     4    15 1   
    12     4    17 2   
    13     4    23 1   
    14     5    13 ar  
    15     5    18 ar  
    16     5    30 1   
    17     6     8 ar  
    18     6    13 ar  
    19     6    14 1   
    20     7    14 1   
    21     7    24 1   
    22     7    25 1   
    23     7    26 1   
    24     8     9 ar  
    25     8    17 1   
    26     9    15 1   
    27     9    18 ar  
    28    10    11 ar  
    29    10    12 ar  
    30    11    27 1   
    31    12    28 1   
    32    14    29 1   
@<TRIPOS>SUBSTRUCTURE
     1 IUH         1 TEMP              0 ****  ****    0 ROOT
