@<TRIPOS>MOLECULE
IUI
   44    46     1     0     0
SMALL
No Charge or Current Charge


@<TRIPOS>ATOM
      1 N1         112.8230    87.9360    68.0730 nb         1 IUI      -0.286000
      2 C7         108.0160    87.9420    70.2260 c          1 IUI       0.656300
      3 C8         105.8410    87.0890    69.2960 c3         1 IUI       0.137300
      4 N2         107.2790    87.3520    69.2300 ns         1 IUI      -0.489900
      5 C9         105.5550    85.6840    69.8050 ca         1 IUI      -0.049300
      6 O1         105.1640    81.3160    72.7510 o          1 IUI      -0.469000
      7 C1         112.9890    89.0590    70.6370 ca         1 IUI      -0.017300
      8 C5         110.4090    88.6010    70.7240 cc         1 IUI       0.267800
      9 C6         109.4590    88.0420    69.8840 cd         1 IUI      -0.268600
     10 N3         110.1380    89.1120    71.9540 nv         1 IUI      -0.926000
     11 C4         111.7410    88.6010    70.1210 ca         1 IUI      -0.124800
     12 C3         111.7250    88.0480    68.8490 ca         1 IUI       0.350300
     13 C2         114.1170    88.9220    69.7740 ca         1 IUI       0.275300
     14 N          114.0090    88.3740    68.5350 nb         1 IUI      -0.297000
     15 C          113.1280    89.6600    72.0410 c3         1 IUI      -0.063800
     16 O          107.5120    88.3380    71.2700 o          1 IUI      -0.636100
     17 C10        105.4220    84.6130    68.9010 ca         1 IUI      -0.110000
     18 C11        105.1620    83.3130    69.3690 ca         1 IUI      -0.003500
     19 C12        105.0360    83.0730    70.7540 ca         1 IUI      -0.279500
     20 C13        105.1690    84.1450    71.6620 ca         1 IUI      -0.003500
     21 C14        105.4290    85.4410    71.1860 ca         1 IUI      -0.110000
     22 C15        102.8500    81.3250    71.3960 c3         1 IUI       0.145000
     23 C16        115.5220    89.3710    70.1560 c3         1 IUI      -0.144400
     24 F          102.3240    81.5250    70.1630 f          1 IUI      -0.099333
     25 F1         102.4160    80.1190    71.8350 f          1 IUI      -0.099333
     26 F2         102.3310    82.2700    72.2180 f          1 IUI      -0.099333
     27 O2         105.1550    80.4440    70.3470 o          1 IUI      -0.469000
     28 S          110.1350    87.4790    68.3230 ss         1 IUI      -0.125900
     29 S1         104.6890    81.4030    71.3610 sy         1 IUI       1.006500
     30 H1         105.3580    87.8280    69.9490 h1         1 IUI       0.071200
     31 H2         105.4150    87.2110    68.2910 h1         1 IUI       0.071200
     32 H3         107.7930    87.0570    68.4100 hn         1 IUI       0.316500
     33 H4         110.7700    89.7780    72.3840 hn         1 IUI       0.493000
     34 H5         109.1570    89.1530    72.2370 hn         1 IUI       0.493000
     35 H6         112.6050    90.6200    72.1110 hc         1 IUI       0.057367
     36 H7         112.7230    88.9820    72.8010 hc         1 IUI       0.057367
     37 H8         114.1670    89.8480    72.3300 hc         1 IUI       0.057367
     38 H9         105.5200    84.7860    67.8320 ha         1 IUI       0.129500
     39 H10        105.0590    82.5000    68.6510 ha         1 IUI       0.144500
     40 H11        105.0730    83.9820    72.7350 ha         1 IUI       0.144500
     41 H12        105.5340    86.2610    71.8940 ha         1 IUI       0.129500
     42 H13        116.2350    89.2300    69.3350 hc         1 IUI       0.056033
     43 H14        115.5360    90.4350    70.4200 hc         1 IUI       0.056033
     44 H15        115.8960    88.7990    71.0140 hc         1 IUI       0.056033
@<TRIPOS>BOND
     1     1    12 ar  
     2     1    14 ar  
     3     2     4 1   
     4     2     9 1   
     5     2    16 2   
     6     3     4 1   
     7     3     5 1   
     8     3    30 1   
     9     3    31 1   
    10     4    32 1   
    11     5    17 ar  
    12     5    21 ar  
    13     6    29 2   
    14     7    11 ar  
    15     7    13 ar  
    16     7    15 1   
    17     8     9 2   
    18     8    10 1   
    19     8    11 1   
    20     9    28 1   
    21    10    33 1   
    22    10    34 1   
    23    11    12 ar  
    24    12    28 1   
    25    13    14 ar  
    26    13    23 1   
    27    15    35 1   
    28    15    36 1   
    29    15    37 1   
    30    17    18 ar  
    31    17    38 1   
    32    18    19 ar  
    33    18    39 1   
    34    19    20 ar  
    35    19    29 1   
    36    20    21 ar  
    37    20    40 1   
    38    21    41 1   
    39    22    24 1   
    40    22    25 1   
    41    22    26 1   
    42    22    29 1   
    43    23    42 1   
    44    23    43 1   
    45    23    44 1   
    46    27    29 2   
@<TRIPOS>SUBSTRUCTURE
     1 IUI         1 TEMP              0 ****  ****    0 ROOT
