@<TRIPOS>MOLECULE
IUI
   44    46     1     0     0
SMALL
abcg2


@<TRIPOS>ATOM
      1 N1         112.4760    88.3800    67.9140 nb         1 IUI      -0.286000
      2 C7         107.7200    88.1400    69.9260 c          1 IUI       0.656300
      3 C8         105.5530    87.4050    69.0800 c3         1 IUI       0.137300
      4 N2         106.9370    87.7850    68.8820 ns         1 IUI      -0.489900
      5 C9         105.4500    86.0400    69.7150 ca         1 IUI      -0.049300
      6 O1         105.7670    82.0990    73.0640 o          1 IUI      -0.469000
      7 C1         112.7000    88.6370    70.6800 ca         1 IUI      -0.017300
      8 C5         110.1030    88.4690    70.6570 cc         1 IUI       0.267800
      9 C6         109.1540    88.2780    69.6740 cd         1 IUI      -0.268600
     10 N3         109.8450    88.5590    71.9820 nv         1 IUI      -0.926000
     11 C4         111.4430    88.5070    70.0950 ca         1 IUI      -0.124800
     12 C3         111.4190    88.3680    68.6970 ca         1 IUI       0.350300
     13 C2         113.7870    88.6390    69.7890 ca         1 IUI       0.275300
     14 N          113.6480    88.5200    68.4690 nb         1 IUI      -0.297000
     15 C          112.9100    88.7760    72.1540 c3         1 IUI      -0.063800
     16 O          107.2470    88.3410    71.0430 o          1 IUI      -0.636100
     17 C10        105.7660    84.9120    68.9620 ca         1 IUI      -0.110000
     18 C11        105.7680    83.6540    69.5370 ca         1 IUI      -0.003500
     19 C12        105.4350    83.5360    70.8800 ca         1 IUI      -0.279500
     20 C13        105.0870    84.6410    71.6470 ca         1 IUI      -0.003500
     21 C14        105.1030    85.8930    71.0550 ca         1 IUI      -0.110000
     22 C15        103.7920    81.3090    71.5050 c3         1 IUI       0.145000
     23 C16        115.2010    88.7810    70.2640 c3         1 IUI      -0.144400
     24 F          103.5860    80.8130    70.2980 f          1 IUI      -0.099333
     25 F1         103.6250    80.3590    72.4090 f          1 IUI      -0.099333
     26 F2         102.9300    82.2870    71.7310 f          1 IUI      -0.099333
     27 O2         106.3480    81.0720    70.8260 o          1 IUI      -0.469000
     28 S          109.8300    88.1670    68.0570 ss         1 IUI      -0.125900
     29 S1         105.5330    81.9550    71.6390 sy         1 IUI       1.006500
     30 H1         105.0420    88.1550    69.6800 h1         1 IUI       0.071200
     31 H2         105.0780    87.3990    68.0990 h1         1 IUI       0.071200
     32 H3         107.3600    87.4630    68.0250 hn         1 IUI       0.316500
     33 H4         110.5090    89.0220    72.5750 hn         1 IUI       0.493000
     34 H5         108.8780    88.6990    72.2310 hn         1 IUI       0.493000
     35 H6         112.5360    89.7370    72.5140 hc         1 IUI       0.057367
     36 H7         112.3990    87.9850    72.7040 hc         1 IUI       0.057367
     37 H8         113.9600    88.7240    72.4250 hc         1 IUI       0.057367
     38 H9         106.0220    85.0150    67.9150 ha         1 IUI       0.129500
     39 H10        106.0350    82.7890    68.9450 ha         1 IUI       0.144500
     40 H11        104.8370    84.5430    72.6950 ha         1 IUI       0.144500
     41 H12        104.8500    86.7630    71.6450 ha         1 IUI       0.129500
     42 H13        115.8790    88.7490    69.4150 hc         1 IUI       0.056033
     43 H14        115.3570    89.7230    70.7910 hc         1 IUI       0.056033
     44 H15        115.4800    87.9790    70.9490 hc         1 IUI       0.056033
@<TRIPOS>BOND
     1     1    12 ar  
     2     1    14 ar  
     3     2     4 1   
     4     2     9 1   
     5     2    16 2   
     6     3     4 1   
     7     3     5 1   
     8     3    30 1   
     9     3    31 1   
    10     4    32 1   
    11     5    17 ar  
    12     5    21 ar  
    13     6    29 2   
    14     7    11 ar  
    15     7    13 ar  
    16     7    15 1   
    17     8     9 2   
    18     8    10 1   
    19     8    11 1   
    20     9    28 1   
    21    10    33 1   
    22    10    34 1   
    23    11    12 ar  
    24    12    28 1   
    25    13    14 ar  
    26    13    23 1   
    27    15    35 1   
    28    15    36 1   
    29    15    37 1   
    30    17    18 ar  
    31    17    38 1   
    32    18    19 ar  
    33    18    39 1   
    34    19    20 ar  
    35    19    29 1   
    36    20    21 ar  
    37    20    40 1   
    38    21    41 1   
    39    22    24 1   
    40    22    25 1   
    41    22    26 1   
    42    22    29 1   
    43    23    42 1   
    44    23    43 1   
    45    23    44 1   
    46    27    29 2   
@<TRIPOS>SUBSTRUCTURE
     1 IUI         1 TEMP              0 ****  ****    0 ROOT
