@<TRIPOS>MOLECULE
IUJ
   41    43     1     0     0
SMALL
bcc


@<TRIPOS>ATOM
      1 C8          23.4060   -32.0570    -2.8930 ca         1 IUJ      -0.164300
      2 C5          23.6730   -26.6970     1.3690 ca         1 IUJ      -0.181000
      3 C6          24.1330   -27.5930     0.4180 ca         1 IUJ      -0.066000
      4 N1          23.4250   -36.1200    -1.8160 nh         1 IUJ      -0.706000
      5 C2          21.8960   -28.3870     0.0570 ca         1 IUJ      -0.066000
      6 C4          22.3190   -26.6660     1.6470 ca         1 IUJ       0.153900
      7 N           22.9940   -29.6840    -2.3050 ns         1 IUJ      -0.573900
      8 C           23.8130   -29.3630    -1.2890 c          1 IUJ       0.681700
      9 O           24.9590   -29.7810    -1.2080 o          1 IUJ      -0.589100
     10 C1          23.2520   -28.4300    -0.2630 ca         1 IUJ      -0.165600
     11 C10         24.4200   -34.2610    -2.9900 ca         1 IUJ      -0.217500
     12 C11         23.4210   -34.8040    -2.1620 ca         1 IUJ       0.221600
     13 C12         22.4200   -33.9280    -1.7040 ca         1 IUJ      -0.217500
     14 C13         22.4200   -32.5930    -2.0700 ca         1 IUJ      -0.062500
     15 C14         22.4950   -36.7030    -0.8680 c5         1 IUJ       0.230800
     16 C15         23.0730   -38.0900    -0.6100 c5         1 IUJ      -0.093400
     17 C16         23.7730   -38.4270    -1.9230 c5         1 IUJ      -0.093400
     18 C17         24.3560   -37.0890    -2.3600 c5         1 IUJ       0.230800
     19 C3          21.4210   -27.5050     1.0160 ca         1 IUJ      -0.181000
     20 C7          23.3750   -30.6180    -3.3410 c3         1 IUJ       0.168300
     21 C9          24.4020   -32.9190    -3.3360 ca         1 IUJ      -0.062500
     22 H1          24.3550   -26.0340     1.8850 ha         1 IUJ       0.152500
     23 H2          25.1910   -27.6270     0.1950 ha         1 IUJ       0.145500
     24 H3          21.1900   -29.0550    -0.4190 ha         1 IUJ       0.145500
     25 H4          22.0920   -29.2450    -2.3750 hn         1 IUJ       0.314500
     26 H5          25.2270   -34.8810    -3.3560 ha         1 IUJ       0.127500
     27 H6          21.6240   -34.2900    -1.0670 ha         1 IUJ       0.127500
     28 H7          21.6240   -31.9570    -1.6970 ha         1 IUJ       0.122000
     29 H8          22.4340   -36.1100     0.0480 h1         1 IUJ       0.042700
     30 H9          21.4810   -36.7630    -1.2830 h1         1 IUJ       0.042700
     31 H10         22.3070   -38.8120    -0.3320 hc         1 IUJ       0.053200
     32 H11         23.8000   -38.0450     0.2040 hc         1 IUJ       0.053200
     33 H12         23.0460   -38.7770    -2.6590 hc         1 IUJ       0.053200
     34 H13         24.5360   -39.1970    -1.8200 hc         1 IUJ       0.053200
     35 H14         25.3690   -36.9440    -1.9610 h1         1 IUJ       0.042700
     36 H15         24.4250   -37.0090    -3.4490 h1         1 IUJ       0.042700
     37 H16         20.3690   -27.4750     1.2690 ha         1 IUJ       0.152500
     38 H17         24.3480   -30.3400    -3.7520 h1         1 IUJ       0.050200
     39 H18         22.6530   -30.4890    -4.1490 h1         1 IUJ       0.050200
     40 H19         25.1950   -32.5380    -3.9690 ha         1 IUJ       0.122000
     41 F           21.8620   -25.7980     2.5590 f          1 IUJ      -0.139900
@<TRIPOS>BOND
     1     1    14 ar  
     2     1    20 1   
     3     1    21 ar  
     4     2     3 ar  
     5     2     6 ar  
     6     2    22 1   
     7     3    10 ar  
     8     3    23 1   
     9     4    12 1   
    10     4    15 1   
    11     4    18 1   
    12     5    10 ar  
    13     5    19 ar  
    14     5    24 1   
    15     6    19 ar  
    16     6    41 1   
    17     7     8 1   
    18     7    20 1   
    19     7    25 1   
    20     8     9 2   
    21     8    10 1   
    22    11    12 ar  
    23    11    21 ar  
    24    11    26 1   
    25    12    13 ar  
    26    13    14 ar  
    27    13    27 1   
    28    14    28 1   
    29    15    16 1   
    30    15    29 1   
    31    15    30 1   
    32    16    17 1   
    33    16    31 1   
    34    16    32 1   
    35    17    18 1   
    36    17    33 1   
    37    17    34 1   
    38    18    35 1   
    39    18    36 1   
    40    19    37 1   
    41    20    38 1   
    42    20    39 1   
    43    21    40 1   
@<TRIPOS>SUBSTRUCTURE
     1 IUJ         1 TEMP              0 ****  ****    0 ROOT
