@<TRIPOS>MOLECULE
IUJ
   41    43     1     0     0
SMALL
No Charge or Current Charge


@<TRIPOS>ATOM
      1 C8          22.9810   -32.0970    -2.9860 ca         1 IUJ      -0.164300
      2 C5          24.1810   -26.7580     1.3590 ca         1 IUJ      -0.163000
      3 C6          24.4540   -27.5310     0.2170 ca         1 IUJ      -0.048000
      4 N1          23.3760   -36.1640    -1.8000 nh         1 IUJ      -0.844400
      5 C2          22.1130   -28.1970     0.1110 ca         1 IUJ      -0.048000
      6 C4          22.8790   -26.7050     1.8740 ca         1 IUJ       0.189000
      7 N           22.7160   -29.7700    -2.2390 ns         1 IUJ      -0.506900
      8 C           23.7570   -29.0840    -1.6530 c          1 IUJ       0.614700
      9 O           24.8920   -29.1410    -2.1070 o          1 IUJ      -0.589100
     10 C1          23.4250   -28.2610    -0.4240 ca         1 IUJ      -0.165600
     11 C10         24.3790   -33.9840    -2.3330 ca         1 IUJ      -0.199500
     12 C11         23.2440   -34.8080    -2.1950 ca         1 IUJ       0.360000
     13 C12         21.9750   -34.2540    -2.4590 ca         1 IUJ      -0.199500
     14 C13         21.8420   -32.9110    -2.8500 ca         1 IUJ      -0.044500
     15 C14         22.2400   -37.0140    -1.3510 c5         1 IUJ       0.230800
     16 C15         22.9780   -38.2110    -0.7020 c5         1 IUJ      -0.093400
     17 C16         24.1880   -38.3720    -1.6550 c5         1 IUJ      -0.093400
     18 C17         24.6670   -36.9040    -1.7850 c5         1 IUJ       0.230800
     19 C3          21.8470   -27.4210     1.2540 ca         1 IUJ      -0.163000
     20 C7          22.8410   -30.6420    -3.4040 c3         1 IUJ       0.168300
     21 C9          24.2510   -32.6400    -2.7230 ca         1 IUJ      -0.044500
     22 H1          24.9770   -26.2000     1.8450 ha         1 IUJ       0.134500
     23 H2          25.4710   -27.5600    -0.1680 ha         1 IUJ       0.127500
     24 H3          21.2870   -28.7400    -0.3430 ha         1 IUJ       0.127500
     25 H4          21.8070   -29.6810    -1.8070 hn         1 IUJ       0.314500
     26 H5          25.3710   -34.3730    -2.1300 ha         1 IUJ       0.109500
     27 H6          21.0800   -34.8610    -2.3690 ha         1 IUJ       0.109500
     28 H7          20.8530   -32.5040    -3.0480 ha         1 IUJ       0.104000
     29 H8          21.5900   -36.5040    -0.6250 h1         1 IUJ       0.042700
     30 H9          21.6280   -37.3380    -2.2050 h1         1 IUJ       0.042700
     31 H10         22.3520   -39.1090    -0.6500 hc         1 IUJ       0.053200
     32 H11         23.3020   -37.9730     0.3190 hc         1 IUJ       0.053200
     33 H12         23.8810   -38.7770    -2.6270 hc         1 IUJ       0.053200
     34 H13         24.9650   -39.0310    -1.2530 hc         1 IUJ       0.053200
     35 H14         25.2820   -36.6080    -0.9220 h1         1 IUJ       0.042700
     36 H15         25.2530   -36.7540    -2.7030 h1         1 IUJ       0.042700
     37 H16         20.8400   -27.3760     1.6610 ha         1 IUJ       0.134500
     38 H17         23.7060   -30.3400    -4.0090 h1         1 IUJ       0.050200
     39 H18         21.9450   -30.5210    -4.0280 h1         1 IUJ       0.050200
     40 H19         25.1390   -32.0200    -2.8190 ha         1 IUJ       0.104000
     41 F           22.6190   -25.9620     2.9720 f          1 IUJ      -0.175000
@<TRIPOS>BOND
     1     1    14 ar  
     2     1    20 1   
     3     1    21 ar  
     4     2     3 ar  
     5     2     6 ar  
     6     2    22 1   
     7     3    10 ar  
     8     3    23 1   
     9     4    12 1   
    10     4    15 1   
    11     4    18 1   
    12     5    10 ar  
    13     5    19 ar  
    14     5    24 1   
    15     6    19 ar  
    16     6    41 1   
    17     7     8 1   
    18     7    20 1   
    19     7    25 1   
    20     8     9 2   
    21     8    10 1   
    22    11    12 ar  
    23    11    21 ar  
    24    11    26 1   
    25    12    13 ar  
    26    13    14 ar  
    27    13    27 1   
    28    14    28 1   
    29    15    16 1   
    30    15    29 1   
    31    15    30 1   
    32    16    17 1   
    33    16    31 1   
    34    16    32 1   
    35    17    18 1   
    36    17    33 1   
    37    17    34 1   
    38    18    35 1   
    39    18    36 1   
    40    19    37 1   
    41    20    38 1   
    42    20    39 1   
    43    21    40 1   
@<TRIPOS>SUBSTRUCTURE
     1 IUJ         1 TEMP              0 ****  ****    0 ROOT
