@<TRIPOS>MOLECULE
IUK
   52    54     1     0     0
SMALL
No Charge or Current Charge


@<TRIPOS>ATOM
      1 C14        -18.1370    15.0370    16.6640 ca         1 IUK      -0.126000
      2 C13        -19.2880    15.7730    16.3300 ca         1 IUK      -0.020300
      3 C12        -19.1930    17.1810    16.2000 ca         1 IUK       0.214000
      4 C15        -16.9030    15.6780    16.8580 ca         1 IUK      -0.046000
      5 C1         -12.9930    19.4860    19.1990 ca         1 IUK       0.368900
      6 C2         -13.9570    20.2090    18.4700 ca         1 IUK      -0.168300
      7 C3         -14.6970    21.2040    19.1330 ca         1 IUK      -0.057000
      8 C7         -14.1890    19.9130    17.0000 c3         1 IUK       0.164300
      9 C5         -13.4560    20.6590    21.1440 ca         1 IUK       0.361300
     10 C4         -14.4370    21.4290    20.4940 ca         1 IUK      -0.163000
     11 C20        -23.5580    15.7170    18.6810 ca         1 IUK      -0.137000
     12 C21        -22.7620    15.2830    19.7570 ca         1 IUK      -0.019300
     13 C24        -23.2320    14.1450    20.6490 c3         1 IUK      -0.058800
     14 C25        -13.1380    20.8720    22.6120 c3         1 IUK      -0.144400
     15 C10        -16.7890    17.0770    16.7180 ca         1 IUK      -0.145600
     16 C11        -17.9500    17.8160    16.3820 ca         1 IUK      -0.090000
     17 C18        -21.8810    17.3840    18.0910 ca         1 IUK      -0.276500
     18 C19        -23.1230    16.7630    17.8490 ca         1 IUK      -0.005500
     19 C22        -21.5210    15.9030    19.9930 ca         1 IUK      -0.137000
     20 C23        -21.0800    16.9500    19.1660 ca         1 IUK      -0.005500
     21 C35        -20.5920    15.0090    16.1050 c3         1 IUK      -0.053800
     22 N16        -20.3030    17.9680    15.8860 nu         1 IUK      -0.888100
     23 N6         -12.7400    19.7030    20.5120 nb         1 IUK      -0.676000
     24 N8         -15.3910    19.1060    16.8040 ns         1 IUK      -0.508900
     25 O26        -14.4400    17.0900    17.2140 o          1 IUK      -0.586100
     26 O27        -20.3840    19.5830    17.7470 o          1 IUK      -0.541000
     27 O28        -22.4010    19.2260    16.2050 o          1 IUK      -0.541000
     28 S17        -21.3010    18.7030    17.0190 sy         1 IUK       1.135600
     29 H1         -18.1970    13.9560    16.7710 ha         1 IUK       0.122000
     30 H2         -16.0330    15.0780    17.1160 ha         1 IUK       0.139000
     31 H4         -15.4520    21.7860    18.6080 ha         1 IUK       0.114000
     32 H5         -13.3220    19.3890    16.5750 h1         1 IUK       0.056700
     33 H6         -14.3070    20.8570    16.4500 h1         1 IUK       0.056700
     34 H7         -14.9870    22.1910    21.0390 ha         1 IUK       0.124000
     35 H8         -24.5160    15.2410    18.4840 ha         1 IUK       0.119500
     36 H9         -22.8920    13.1780    20.2600 hc         1 IUK       0.049700
     37 H10        -22.8460    14.2510    21.6700 hc         1 IUK       0.049700
     38 H11        -24.3270    14.1140    20.7140 hc         1 IUK       0.049700
     39 H12        -12.9570    19.9190    23.1230 hc         1 IUK       0.050700
     40 H13        -12.2420    21.4930    22.7290 hc         1 IUK       0.050700
     41 H14        -13.9630    21.3730    23.1300 hc         1 IUK       0.050700
     42 H15        -17.9060    18.8950    16.2720 ha         1 IUK       0.119000
     43 H16        -23.7490    17.0810    17.0160 ha         1 IUK       0.139000
     44 H17        -20.8940    15.5720    20.8170 ha         1 IUK       0.119500
     45 H18        -20.1140    17.4150    19.3580 ha         1 IUK       0.139000
     46 H19        -21.3170    15.5780    15.5120 hc         1 IUK       0.052700
     47 H20        -20.4090    14.0710    15.5690 hc         1 IUK       0.052700
     48 H21        -21.0640    14.7540    17.0610 hc         1 IUK       0.052700
     49 H22        -20.0820    18.7590    15.2970 hn         1 IUK       0.487000
     50 H23        -16.2550    19.5790    16.5760 hn         1 IUK       0.316500
     51 C9         -15.4410    17.7360    16.9350 c          1 IUK       0.615700
     52 H3         -12.4010    18.7070    18.7190 h4         1 IUK       0.020100
@<TRIPOS>BOND
     1     1     2 ar  
     2     1     4 ar  
     3     1    29 1   
     4     2     3 ar  
     5     2    21 1   
     6     3    16 ar  
     7     3    22 1   
     8     4    15 ar  
     9     4    30 1   
    10     5     6 ar  
    11     5    23 ar  
    12     5    52 1   
    13     6     7 ar  
    14     6     8 1   
    15     7    10 ar  
    16     7    31 1   
    17     8    24 1   
    18     8    32 1   
    19     8    33 1   
    20     9    10 ar  
    21     9    14 1   
    22     9    23 ar  
    23    10    34 1   
    24    11    12 ar  
    25    11    18 ar  
    26    11    35 1   
    27    12    13 1   
    28    12    19 ar  
    29    13    36 1   
    30    13    37 1   
    31    13    38 1   
    32    14    39 1   
    33    14    40 1   
    34    14    41 1   
    35    15    16 ar  
    36    15    51 1   
    37    16    42 1   
    38    17    18 ar  
    39    17    20 ar  
    40    17    28 1   
    41    18    43 1   
    42    19    20 ar  
    43    19    44 1   
    44    20    45 1   
    45    21    46 1   
    46    21    47 1   
    47    21    48 1   
    48    22    28 1   
    49    22    49 1   
    50    24    50 1   
    51    24    51 1   
    52    25    51 2   
    53    26    28 2   
    54    27    28 2   
@<TRIPOS>SUBSTRUCTURE
     1 IUK         1 TEMP              0 ****  ****    0 ROOT
