@<TRIPOS>MOLECULE
IUK
   52    54     1     0     0
SMALL
abcg2


@<TRIPOS>ATOM
      1 C14        -18.1230    15.1370    16.6550 ca         1 IUK      -0.126000
      2 C13        -19.2680    15.9210    16.5000 ca         1 IUK      -0.020300
      3 C12        -19.1170    17.3080    16.5750 ca         1 IUK       0.214000
      4 C15        -16.8780    15.7000    16.8580 ca         1 IUK      -0.046000
      5 C1         -12.7140    19.7970    19.0500 ca         1 IUK       0.368900
      6 C2         -13.8230    20.0620    18.2610 ca         1 IUK      -0.168300
      7 C3         -14.8580    20.7780    18.8510 ca         1 IUK      -0.057000
      8 C7         -13.9070    19.5870    16.8350 c3         1 IUK       0.164300
      9 C5         -13.5790    20.8690    20.8770 ca         1 IUK       0.361300
     10 C4         -14.7370    21.1840    20.1680 ca         1 IUK      -0.163000
     11 C20        -23.5960    15.8850    18.5700 ca         1 IUK      -0.137000
     12 C21        -22.9510    15.1180    19.5410 ca         1 IUK      -0.019300
     13 C24        -23.5850    13.8680    20.0710 c3         1 IUK      -0.058800
     14 C25        -13.3970    21.2970    22.3010 c3         1 IUK      -0.144400
     15 C10        -16.7290    17.0840    16.8850 ca         1 IUK      -0.145600
     16 C11        -17.8610    17.8780    16.7590 ca         1 IUK      -0.090000
     17 C18        -21.7450    17.3950    18.4990 ca         1 IUK      -0.276500
     18 C19        -23.0010    17.0170    18.0420 ca         1 IUK      -0.005500
     19 C22        -21.6970    15.5270    19.9880 ca         1 IUK      -0.137000
     20 C23        -21.0880    16.6630    19.4770 ca         1 IUK      -0.005500
     21 C35        -20.5870    15.2560    16.2520 c3         1 IUK      -0.053800
     22 N16        -20.2580    18.1500    16.4210 nu         1 IUK      -0.888100
     23 N6         -12.5860    20.1860    20.3130 nb         1 IUK      -0.676000
     24 N8         -15.1290    18.8620    16.5690 ns         1 IUK      -0.508900
     25 O26        -14.5230    17.0440    17.7480 o          1 IUK      -0.586100
     26 O27        -19.9590    19.2780    18.7370 o          1 IUK      -0.541000
     27 O28        -21.9530    19.7410    17.2930 o          1 IUK      -0.541000
     28 S17        -20.9590    18.8040    17.7910 sy         1 IUK       1.135600
     29 H1         -18.2160    14.0600    16.6020 ha         1 IUK       0.122000
     30 H2         -16.0120    15.0610    16.9740 ha         1 IUK       0.139000
     31 H4         -15.7570    21.0110    18.2930 ha         1 IUK       0.114000
     32 H5         -13.0370    18.9710    16.5940 h1         1 IUK       0.056700
     33 H6         -13.8890    20.4390    16.1550 h1         1 IUK       0.056700
     34 H7         -15.5330    21.7370    20.6490 ha         1 IUK       0.124000
     35 H8         -24.5780    15.5910    18.2210 ha         1 IUK       0.119500
     36 H9         -23.3810    13.0270    19.4050 hc         1 IUK       0.049700
     37 H10        -23.1980    13.6090    21.0540 hc         1 IUK       0.049700
     38 H11        -24.6680    13.9680    20.1400 hc         1 IUK       0.049700
     39 H12        -12.9960    20.4830    22.9040 hc         1 IUK       0.050700
     40 H13        -12.6900    22.1270    22.3660 hc         1 IUK       0.050700
     41 H14        -14.3350    21.6270    22.7440 hc         1 IUK       0.050700
     42 H15        -17.7920    18.9580    16.8130 ha         1 IUK       0.119000
     43 H16        -23.5150    17.5920    17.2830 ha         1 IUK       0.139000
     44 H17        -21.1850    14.9500    20.7490 ha         1 IUK       0.119500
     45 H18        -20.1140    16.9610    19.8400 ha         1 IUK       0.139000
     46 H19        -21.2920    15.9180    15.7560 hc         1 IUK       0.052700
     47 H20        -20.4530    14.3660    15.6380 hc         1 IUK       0.052700
     48 H21        -21.0440    14.9330    17.1890 hc         1 IUK       0.052700
     49 H22        -20.1480    18.8760    15.7160 hn         1 IUK       0.487000
     50 H23        -15.8130    19.2920    15.9690 hn         1 IUK       0.316500
     51 C9         -15.3670    17.6540    17.1090 c          1 IUK       0.615700
     52 H3         -11.8840    19.2310    18.6360 h4         1 IUK       0.020100
@<TRIPOS>BOND
     1     1     2 ar  
     2     1     4 ar  
     3     1    29 1   
     4     2     3 ar  
     5     2    21 1   
     6     3    16 ar  
     7     3    22 1   
     8     4    15 ar  
     9     4    30 1   
    10     5     6 ar  
    11     5    23 ar  
    12     5    52 1   
    13     6     7 ar  
    14     6     8 1   
    15     7    10 ar  
    16     7    31 1   
    17     8    24 1   
    18     8    32 1   
    19     8    33 1   
    20     9    10 ar  
    21     9    14 1   
    22     9    23 ar  
    23    10    34 1   
    24    11    12 ar  
    25    11    18 ar  
    26    11    35 1   
    27    12    13 1   
    28    12    19 ar  
    29    13    36 1   
    30    13    37 1   
    31    13    38 1   
    32    14    39 1   
    33    14    40 1   
    34    14    41 1   
    35    15    16 ar  
    36    15    51 1   
    37    16    42 1   
    38    17    18 ar  
    39    17    20 ar  
    40    17    28 1   
    41    18    43 1   
    42    19    20 ar  
    43    19    44 1   
    44    20    45 1   
    45    21    46 1   
    46    21    47 1   
    47    21    48 1   
    48    22    28 1   
    49    22    49 1   
    50    24    50 1   
    51    24    51 1   
    52    25    51 2   
    53    26    28 2   
    54    27    28 2   
@<TRIPOS>SUBSTRUCTURE
     1 IUK         1 TEMP              0 ****  ****    0 ROOT
