@<TRIPOS>MOLECULE
IUL
   47    50     1     0     0
SMALL
abcg2


@<TRIPOS>ATOM
      1 C1          -5.2440    -0.8910     0.0890 ca         1 IUL      -0.075500
      2 C2          -4.4280    -0.0060     0.7740 ca         1 IUL      -0.090000
      3 C3          -3.0500    -0.1780     0.7900 ca         1 IUL      -0.095300
      4 C4          -2.4870    -1.2520     0.1050 ca         1 IUL      -0.090000
      5 C5          -3.2870    -2.1460    -0.5830 ca         1 IUL      -0.075500
      6 C6          -4.6700    -1.9640    -0.5900 ca         1 IUL      -0.011000
      7 C7          -2.1660     0.8110     1.5300 c6         1 IUL       0.244200
      8 N8           0.6430     0.5720     1.1440 n          1 IUL      -0.163600
      9 N10         -1.2450     0.1450     2.4260 ns         1 IUL      -0.505900
     10 C11          2.0420     0.3790     0.9470 ca         1 IUL      -0.057000
     11 C12          2.9520     1.2570     1.5180 ca         1 IUL      -0.073000
     12 C13          4.3070     1.0750     1.2970 ca         1 IUL      -0.112000
     13 C14          4.7550     0.0190     0.5150 ca         1 IUL      -0.050000
     14 C15          3.8370    -0.8560    -0.0480 ca         1 IUL      -0.193300
     15 C16          2.4750    -0.6780     0.1670 ca         1 IUL      -0.044000
     16 C17          4.2750    -2.0090    -0.8970 c3         1 IUL       0.359300
     17 F18          5.6000    -2.0650    -1.0470 f          1 IUL      -0.110333
     18 F19          3.8870    -3.1800    -0.3730 f          1 IUL      -0.110333
     19 F20          3.7420    -1.9460    -2.1250 f          1 IUL      -0.110333
     20 O21          0.7530    -0.7540     2.9820 o          1 IUL      -0.556000
     21 C22         -5.5040    -2.8840    -1.2940 cg         1 IUL       0.323000
     22 N23         -6.1780    -3.6240    -1.8650 n1         1 IUL      -0.451000
     23 C25         -1.3890     1.6500     0.5650 ce         1 IUL      -0.290400
     24 C26         -2.0930     2.7170    -0.1440 c          1 IUL       0.586200
     25 N27         -1.3640     3.3710    -1.0840 ns         1 IUL      -0.371300
     26 N28         -0.2520     2.7000    -1.6640 n3         1 IUL      -0.444600
     27 C29          0.6630     2.3240    -0.6090 c6         1 IUL       0.165000
     28 O30         -3.2410     3.0440     0.1330 o          1 IUL      -0.552000
     29 C31          0.3920     3.5890    -2.6120 c3         1 IUL       0.118100
     30 H1          -6.3160    -0.7520     0.0830 ha         1 IUL       0.128000
     31 H2          -4.8740     0.8270     1.3010 ha         1 IUL       0.125000
     32 H4          -1.4150    -1.4050     0.1000 ha         1 IUL       0.125000
     33 H5          -2.8440    -2.9790    -1.1100 ha         1 IUL       0.128000
     34 H7          -2.8100     1.4550     2.1330 h1         1 IUL       0.086700
     35 HN10        -1.6460    -0.3200     3.2270 hn         1 IUL       0.340500
     36 H12          2.6020     2.0790     2.1290 ha         1 IUL       0.131000
     37 H13          5.0210     1.7580     1.7370 ha         1 IUL       0.129000
     38 H14          5.8170    -0.1050     0.3530 ha         1 IUL       0.137000
     39 H16          1.7440    -1.3460    -0.2730 ha         1 IUL       0.141000
     40 HN27        -1.8940     3.9160    -1.7520 hn         1 IUL       0.319500
     41 H29          1.1080     3.1920    -0.0920 h1         1 IUL       0.070700
     42 H29A         1.4770     1.7660    -1.0710 h1         1 IUL       0.070700
     43 H31          0.7490     4.5190    -2.1540 h1         1 IUL       0.051700
     44 H31A         1.2410     3.0660    -3.0490 h1         1 IUL       0.051700
     45 H31B        -0.3000     3.8340    -3.4180 h1         1 IUL       0.051700
     46 C9           0.0690    -0.0700     2.2450 c          1 IUL       0.622000
     47 C24         -0.0700     1.4770     0.3880 c2         1 IUL       0.126400
@<TRIPOS>BOND
     1     1     2 ar  
     2     1     6 ar  
     3     1    30 1   
     4     2     3 ar  
     5     2    31 1   
     6     3     4 ar  
     7     3     7 1   
     8     4     5 ar  
     9     4    32 1   
    10     5     6 ar  
    11     5    33 1   
    12     6    21 1   
    13     7     9 1   
    14     7    23 1   
    15     7    34 1   
    16     8    10 1   
    17     8    46 1   
    18     8    47 1   
    19     9    35 1   
    20     9    46 1   
    21    10    11 ar  
    22    10    15 ar  
    23    11    12 ar  
    24    11    36 1   
    25    12    13 ar  
    26    12    37 1   
    27    13    14 ar  
    28    13    38 1   
    29    14    15 ar  
    30    14    16 1   
    31    15    39 1   
    32    16    17 1   
    33    16    18 1   
    34    16    19 1   
    35    20    46 2   
    36    21    22 3   
    37    23    24 1   
    38    23    47 2   
    39    24    25 1   
    40    24    28 2   
    41    25    26 1   
    42    25    40 1   
    43    26    27 1   
    44    26    29 1   
    45    27    41 1   
    46    27    42 1   
    47    27    47 1   
    48    29    43 1   
    49    29    44 1   
    50    29    45 1   
@<TRIPOS>SUBSTRUCTURE
     1 IUL         1 TEMP              0 ****  ****    0 ROOT
