@<TRIPOS>MOLECULE
IUL
   47    50     1     0     0
SMALL
No Charge or Current Charge


@<TRIPOS>ATOM
      1 C1          -5.1910    -1.2400     0.3910 ca         1 IUL      -0.075500
      2 C2          -4.4690    -0.1660     0.9410 ca         1 IUL      -0.090000
      3 C3          -3.0680    -0.1050     0.8060 ca         1 IUL      -0.095300
      4 C4          -2.3970    -1.1350     0.1140 ca         1 IUL      -0.090000
      5 C5          -3.1180    -2.2100    -0.4360 ca         1 IUL      -0.075500
      6 C6          -4.5180    -2.2660    -0.2990 ca         1 IUL      -0.011000
      7 C7          -2.2900     1.0710     1.4060 c6         1 IUL       0.244200
      8 N8           0.5930     0.7560     1.2720 n          1 IUL      -0.163600
      9 N10         -1.4540     0.5840     2.4960 ns         1 IUL      -0.505900
     10 C11          1.9660     0.3660     1.0870 ca         1 IUL      -0.057000
     11 C12          2.9570     0.7820     1.9950 ca         1 IUL      -0.073000
     12 C13          4.2940     0.3980     1.8000 ca         1 IUL      -0.112000
     13 C14          4.6480    -0.3990     0.6990 ca         1 IUL      -0.050000
     14 C15          3.6650    -0.8180    -0.2250 ca         1 IUL      -0.193300
     15 C16          2.3220    -0.4360    -0.0140 ca         1 IUL      -0.044000
     16 C17          4.0350    -1.6950    -1.4260 c3         1 IUL       0.359300
     17 F18          5.3330    -1.5650    -1.7850 f          1 IUL      -0.110333
     18 F19          3.8280    -3.0040    -1.1590 f          1 IUL      -0.110333
     19 F20          3.3000    -1.3940    -2.5210 f          1 IUL      -0.110333
     20 O21          0.4330    -0.2500     3.3600 o          1 IUL      -0.556000
     21 C22         -5.2560    -3.3650    -0.8610 cg         1 IUL       0.323000
     22 N23         -5.8590    -4.2590    -1.3090 n1         1 IUL      -0.451000
     23 C25         -1.4260     1.7660     0.3720 ce         1 IUL      -0.290400
     24 C26         -2.1170     2.6860    -0.5810 c          1 IUL       0.586200
     25 N27         -1.3350     3.2030    -1.6050 ns         1 IUL      -0.371300
     26 N28         -0.0010     2.7590    -1.8780 n3         1 IUL      -0.444600
     27 C29          0.7440     2.4200    -0.6360 c6         1 IUL       0.165000
     28 O30         -3.2980     2.9820    -0.4880 o          1 IUL      -0.552000
     29 C31          0.7210     3.7330    -2.7250 c3         1 IUL       0.118100
     30 H1          -6.2730    -1.2730     0.5030 ha         1 IUL       0.128000
     31 H2          -5.0040     0.6210     1.4690 ha         1 IUL       0.125000
     32 H4          -1.3170    -1.1060    -0.0020 ha         1 IUL       0.125000
     33 H5          -2.5870    -2.9960    -0.9680 ha         1 IUL       0.128000
     34 H7          -2.9990     1.7980     1.8310 h1         1 IUL       0.086700
     35 HN10        -1.9130     0.2680     3.3400 hn         1 IUL       0.340500
     36 H12          2.6940     1.4030     2.8480 ha         1 IUL       0.131000
     37 H13          5.0580     0.7180     2.5050 ha         1 IUL       0.129000
     38 H14          5.6890    -0.6900     0.5700 ha         1 IUL       0.137000
     39 H16          1.5480    -0.7630    -0.7060 ha         1 IUL       0.141000
     40 HN27        -1.8060     3.8250    -2.2570 hn         1 IUL       0.319500
     41 H29          1.0360     3.3420    -0.1130 h1         1 IUL       0.070700
     42 H29A         1.6770     1.9090    -0.9070 h1         1 IUL       0.070700
     43 H31          0.8270     4.6980    -2.2130 h1         1 IUL       0.051700
     44 H31A         1.7250     3.3620    -2.9710 h1         1 IUL       0.051700
     45 H31B         0.1840     3.8990    -3.6680 h1         1 IUL       0.051700
     46 C9          -0.1060     0.3370     2.4340 c          1 IUL       0.622000
     47 C24         -0.0890     1.5810     0.3400 c2         1 IUL       0.126400
@<TRIPOS>BOND
     1     1     2 ar  
     2     1     6 ar  
     3     1    30 1   
     4     2     3 ar  
     5     2    31 1   
     6     3     4 ar  
     7     3     7 1   
     8     4     5 ar  
     9     4    32 1   
    10     5     6 ar  
    11     5    33 1   
    12     6    21 1   
    13     7     9 1   
    14     7    23 1   
    15     7    34 1   
    16     8    10 1   
    17     8    46 1   
    18     8    47 1   
    19     9    35 1   
    20     9    46 1   
    21    10    11 ar  
    22    10    15 ar  
    23    11    12 ar  
    24    11    36 1   
    25    12    13 ar  
    26    12    37 1   
    27    13    14 ar  
    28    13    38 1   
    29    14    15 ar  
    30    14    16 1   
    31    15    39 1   
    32    16    17 1   
    33    16    18 1   
    34    16    19 1   
    35    20    46 2   
    36    21    22 3   
    37    23    24 1   
    38    23    47 2   
    39    24    25 1   
    40    24    28 2   
    41    25    26 1   
    42    25    40 1   
    43    26    27 1   
    44    26    29 1   
    45    27    41 1   
    46    27    42 1   
    47    27    47 1   
    48    29    43 1   
    49    29    44 1   
    50    29    45 1   
@<TRIPOS>SUBSTRUCTURE
     1 IUL         1 TEMP              0 ****  ****    0 ROOT
