@<TRIPOS>MOLECULE
IUN
   68    71     1     0     0
SMALL
abcg2


@<TRIPOS>ATOM
      1 C10         -0.3140   -43.2900   -11.0280 c6         1 IUN      -0.069700
      2 C13         -0.0740   -41.8980   -11.6090 c6         1 IUN      -0.073400
      3 C15          0.9080   -41.9490   -12.7750 c6         1 IUN      -0.073900
      4 C17         -2.9820   -46.6980   -10.1770 c5         1 IUN       0.071400
      5 C20         -3.9360   -47.0220   -11.3360 c5         1 IUN      -0.086400
      6 C21         -4.5240   -45.6650   -11.6960 c5         1 IUN      -0.097400
      7 C22         -1.7930   -47.6030   -10.1200 cc         1 IUN       0.433700
      8 C24         -0.6650   -40.9060    -6.9860 c3         1 IUN       0.104500
      9 C26          0.2730   -48.7830   -10.5500 cc         1 IUN      -0.208000
     10 C11         -1.3690   -43.2580    -9.9000 c3         1 IUN       0.039700
     11 C12          1.0120   -43.9160   -10.5930 c6         1 IUN      -0.073400
     12 C14          1.9940   -43.9770   -11.7590 c6         1 IUN      -0.073900
     13 C16          2.2260   -42.5980   -12.3650 c6         1 IUN      -0.075400
     14 C18         -1.8010   -44.6770    -9.5480 c          1 IUN       0.593100
     15 C19         -3.3290   -44.7330   -11.5560 c5         1 IUN       0.104000
     16 C25         -0.4760   -49.2500    -9.5100 cd         1 IUN       0.205500
     17 C27         -1.7660   -40.9220    -5.9320 c3         1 IUN      -0.086100
     18 C30         -0.6400   -50.5530    -7.3160 ca         1 IUN      -0.176600
     19 C31         -0.7660   -51.8370    -6.7830 ca         1 IUN      -0.027500
     20 C32         -0.9720   -49.4540    -6.5230 ca         1 IUN      -0.027500
     21 C33         -1.2360   -52.0290    -5.4950 ca         1 IUN      -0.171500
     22 C34         -1.4190   -49.6290    -5.2230 ca         1 IUN      -0.171500
     23 C35         -1.5490   -50.9160    -4.7360 ca         1 IUN       0.196000
     24 F02         -1.9910   -51.0900    -3.4850 f          1 IUN      -0.176000
     25 N06         -2.5940   -45.3150   -10.4330 n          1 IUN      -0.422800
     26 N07         -0.8910   -42.6040    -8.7100 ns         1 IUN      -0.489900
     27 N08         -1.6420   -48.5710    -9.2860 nd         1 IUN      -0.605000
     28 N09         -0.0690   -39.5910    -7.0670 n7         1 IUN      -0.853400
     29 O03         -1.3950   -45.2330    -8.5380 o          1 IUN      -0.598100
     30 O05          0.7190   -51.2180    -9.1160 o          1 IUN      -0.521100
     31 S01         -0.4960   -47.4430   -11.2640 ss         1 IUN      -0.009400
     32 H1          -0.7190   -43.9100   -11.8380 hc         1 IUN       0.050700
     33 H2          -1.0220   -41.4600   -11.9340 hc         1 IUN       0.047200
     34 H3           0.3240   -41.2400   -10.8290 hc         1 IUN       0.047200
     35 H4           0.4620   -42.5200   -13.5960 hc         1 IUN       0.039450
     36 H5           1.0830   -40.9410   -13.1580 hc         1 IUN       0.039450
     37 H6          -3.5020   -46.7830    -9.2190 h1         1 IUN       0.095700
     38 H7          -3.3800   -47.4270   -12.1850 hc         1 IUN       0.064200
     39 H8          -4.6800   -47.7610   -11.0430 hc         1 IUN       0.064200
     40 H9          -4.9500   -45.6390   -12.6970 hc         1 IUN       0.062200
     41 H10         -5.3050   -45.3830   -10.9870 hc         1 IUN       0.062200
     42 H12          0.1230   -41.6020    -6.6780 h1         1 IUN       0.063700
     43 H13          1.2270   -49.1450   -10.9010 h4         1 IUN       0.176000
     44 H15         -2.2280   -42.6850   -10.2550 h1         1 IUN       0.092700
     45 H16          1.4510   -43.3190    -9.7870 hc         1 IUN       0.047200
     46 H17          0.8600   -44.9210   -10.1900 hc         1 IUN       0.047200
     47 H18          2.9400   -44.4100   -11.4250 hc         1 IUN       0.039450
     48 H19          1.5980   -44.6500   -12.5270 hc         1 IUN       0.039450
     49 H20          2.8960   -42.6690   -13.2260 hc         1 IUN       0.040700
     50 H21          2.7290   -41.9590   -11.6310 hc         1 IUN       0.040700
     51 H22         -2.7210   -44.7380   -12.4650 h1         1 IUN       0.055200
     52 H23         -3.6250   -43.7060   -11.3520 h1         1 IUN       0.055200
     53 H24         -1.3570   -40.6360    -4.9630 hc         1 IUN       0.048700
     54 H25         -2.5620   -40.2210    -6.1880 hc         1 IUN       0.048700
     55 H26         -2.2070   -41.9130    -5.8370 hc         1 IUN       0.048700
     56 H27          1.4660   -38.4980    -7.9570 h1         1 IUN       0.032367
     57 H28          1.8570   -40.1800    -7.6160 h1         1 IUN       0.032367
     58 H29          0.8530   -39.7740    -9.0100 h1         1 IUN       0.032367
     59 H30         -0.5080   -52.6990    -7.3830 ha         1 IUN       0.134000
     60 H31         -0.8660   -48.4470    -6.9010 ha         1 IUN       0.134000
     61 H32         -1.3510   -53.0240    -5.0880 ha         1 IUN       0.135000
     62 H33         -1.6600   -48.7780    -4.6000 ha         1 IUN       0.135000
     63 H34         -0.2920   -43.1390    -8.1010 hn         1 IUN       0.332500
     64 H37         -0.7750   -38.9210    -7.3470 hn         1 IUN       0.429000
     65 C23         -1.2530   -41.3690    -8.3230 c          1 IUN       0.563100
     66 C28         -0.0730   -50.4060    -8.6800 c          1 IUN       0.522200
     67 C29          1.0660   -39.5120    -7.9650 c3         1 IUN       0.143100
     68 O04         -2.0030   -40.6480    -8.9650 o          1 IUN      -0.616100
@<TRIPOS>BOND
     1     1     2 1   
     2     1    10 1   
     3     1    11 1   
     4     1    32 1   
     5     2     3 1   
     6     2    33 1   
     7     2    34 1   
     8     3    13 1   
     9     3    35 1   
    10     3    36 1   
    11     4     5 1   
    12     4     7 1   
    13     4    25 1   
    14     4    37 1   
    15     5     6 1   
    16     5    38 1   
    17     5    39 1   
    18     6    15 1   
    19     6    40 1   
    20     6    41 1   
    21     7    27 2   
    22     7    31 1   
    23     8    17 1   
    24     8    28 1   
    25     8    42 1   
    26     8    65 1   
    27     9    16 2   
    28     9    31 1   
    29     9    43 1   
    30    10    14 1   
    31    10    26 1   
    32    10    44 1   
    33    11    12 1   
    34    11    45 1   
    35    11    46 1   
    36    12    13 1   
    37    12    47 1   
    38    12    48 1   
    39    13    49 1   
    40    13    50 1   
    41    14    25 1   
    42    14    29 2   
    43    15    25 1   
    44    15    51 1   
    45    15    52 1   
    46    16    27 1   
    47    16    66 1   
    48    17    53 1   
    49    17    54 1   
    50    17    55 1   
    51    18    19 ar  
    52    18    20 ar  
    53    18    66 1   
    54    19    21 ar  
    55    19    59 1   
    56    20    22 ar  
    57    20    60 1   
    58    21    23 ar  
    59    21    61 1   
    60    22    23 ar  
    61    22    62 1   
    62    23    24 1   
    63    26    63 1   
    64    26    65 1   
    65    28    64 1   
    66    28    67 1   
    67    30    66 2   
    68    56    67 1   
    69    57    67 1   
    70    58    67 1   
    71    65    68 2   
@<TRIPOS>SUBSTRUCTURE
     1 IUN         1 TEMP              0 ****  ****    0 ROOT
