@<TRIPOS>MOLECULE
IUN
   68    71     1     0     0
SMALL
No Charge or Current Charge


@<TRIPOS>ATOM
      1 C10         -0.4620   -43.0820   -11.0130 c6         1 IUN      -0.069700
      2 C13         -0.4140   -41.7170   -11.7570 c6         1 IUN      -0.073400
      3 C15          0.5210   -41.7810   -12.9900 c6         1 IUN      -0.073900
      4 C17         -2.8060   -46.7950    -9.9450 c5         1 IUN       0.071400
      5 C20         -3.5710   -47.2140   -11.2330 c5         1 IUN      -0.086400
      6 C21         -4.4730   -45.9810   -11.4700 c5         1 IUN      -0.097400
      7 C22         -1.5550   -47.6410    -9.7620 cc         1 IUN       0.433700
      8 C24         -0.4770   -40.3520    -7.1680 c3         1 IUN       0.104500
      9 C26          0.6280   -48.6760    -9.8890 cc         1 IUN      -0.208000
     10 C11         -1.4620   -43.0800    -9.8020 c3         1 IUN       0.039700
     11 C12          0.9760   -43.5280   -10.6110 c6         1 IUN      -0.073400
     12 C14          1.9090   -43.5950   -11.8450 c6         1 IUN      -0.073900
     13 C16          1.9460   -42.2390   -12.5920 c6         1 IUN      -0.075400
     14 C18         -1.8360   -44.5240    -9.3360 c          1 IUN       0.593100
     15 C19         -3.4760   -44.8120   -11.2680 c5         1 IUN       0.104000
     16 C25         -0.2150   -49.2580    -8.9620 cd         1 IUN       0.205500
     17 C27         -1.4910   -39.7610    -6.1650 c3         1 IUN      -0.086100
     18 C30         -0.6450   -51.0390    -7.1120 ca         1 IUN      -0.176600
     19 C31         -0.7010   -52.4420    -6.9630 ca         1 IUN      -0.027500
     20 C32         -1.4170   -50.2240    -6.2540 ca         1 IUN      -0.027500
     21 C33         -1.5350   -53.0210    -5.9900 ca         1 IUN      -0.171500
     22 C34         -2.2490   -50.8080    -5.2820 ca         1 IUN      -0.171500
     23 C35         -2.3090   -52.2020    -5.1560 ca         1 IUN       0.196000
     24 F02         -3.1080   -52.7600    -4.2210 f          1 IUN      -0.176000
     25 N06         -2.5870   -45.3450   -10.2080 n          1 IUN      -0.422800
     26 N07         -0.9500   -42.2940    -8.6540 ns         1 IUN      -0.489900
     27 N08         -1.4780   -48.6580    -8.9110 nd         1 IUN      -0.605000
     28 N09          0.5380   -39.3070    -7.5080 n7         1 IUN      -0.853400
     29 O03         -1.4350   -44.9730    -8.2680 o          1 IUN      -0.598100
     30 O05          1.3850   -50.9330    -8.3290 o          1 IUN      -0.521100
     31 S01         -0.1250   -47.3470   -10.7190 ss         1 IUN      -0.009400
     32 H1          -0.8460   -43.8210   -11.7290 hc         1 IUN       0.050700
     33 H2          -1.4240   -41.4260   -12.0770 hc         1 IUN       0.047200
     34 H3          -0.0610   -40.9290   -11.0800 hc         1 IUN       0.047200
     35 H4           0.1050   -42.4730   -13.7360 hc         1 IUN       0.039450
     36 H5           0.5690   -40.7950   -13.4730 hc         1 IUN       0.039450
     37 H6          -3.4470   -46.9160    -9.0610 h1         1 IUN       0.095700
     38 H7          -2.8910   -47.3710   -12.0800 hc         1 IUN       0.064200
     39 H8          -4.1430   -48.1390   -11.0970 hc         1 IUN       0.064200
     40 H9          -4.9320   -45.9720   -12.4650 hc         1 IUN       0.062200
     41 H10         -5.2850   -45.9380   -10.7340 hc         1 IUN       0.062200
     42 H12          0.0240   -41.1860    -6.6570 h1         1 IUN       0.063700
     43 H13          1.6460   -48.9480   -10.1360 h4         1 IUN       0.176000
     44 H15         -2.3980   -42.6190   -10.1390 h1         1 IUN       0.092700
     45 H16          1.4010   -42.8280    -9.8780 hc         1 IUN       0.047200
     46 H17          0.9480   -44.5100   -10.1210 hc         1 IUN       0.047200
     47 H18          2.9230   -43.8750   -11.5300 hc         1 IUN       0.039450
     48 H19          1.5640   -44.3860   -12.5270 hc         1 IUN       0.039450
     49 H20          2.5750   -42.3240   -13.4880 hc         1 IUN       0.040700
     50 H21          2.4140   -41.4780   -11.9520 hc         1 IUN       0.040700
     51 H22         -2.9120   -44.6120   -12.1880 h1         1 IUN       0.055200
     52 H23         -3.9940   -43.8920   -10.9660 h1         1 IUN       0.055200
     53 H24         -0.9810   -39.4040    -5.2630 hc         1 IUN       0.048700
     54 H25         -2.0400   -38.9210    -6.6080 hc         1 IUN       0.048700
     55 H26         -2.2190   -40.5240    -5.8640 hc         1 IUN       0.048700
     56 H27          2.3940   -38.9470    -8.4840 h1         1 IUN       0.032367
     57 H28          2.2310   -40.5720    -7.7860 h1         1 IUN       0.032367
     58 H29          1.3680   -40.1550    -9.2840 h1         1 IUN       0.032367
     59 H30         -0.1020   -53.0860    -7.6060 ha         1 IUN       0.134000
     60 H31         -1.3670   -49.1390    -6.3230 ha         1 IUN       0.134000
     61 H32         -1.5810   -54.1010    -5.8820 ha         1 IUN       0.135000
     62 H33         -2.8440   -50.1800    -4.6240 ha         1 IUN       0.135000
     63 H34         -0.3600   -42.7720    -7.9820 hn         1 IUN       0.332500
     64 H37          0.0610   -38.5610    -8.0350 hn         1 IUN       0.429000
     65 C23         -1.2050   -40.9580    -8.4200 c          1 IUN       0.563100
     66 C28          0.2720   -50.4410    -8.1570 c          1 IUN       0.522200
     67 C29          1.6910   -39.7710    -8.3070 c3         1 IUN       0.143100
     68 O04         -1.9430   -40.3010    -9.1450 o          1 IUN      -0.616100
@<TRIPOS>BOND
     1     1     2 1   
     2     1    10 1   
     3     1    11 1   
     4     1    32 1   
     5     2     3 1   
     6     2    33 1   
     7     2    34 1   
     8     3    13 1   
     9     3    35 1   
    10     3    36 1   
    11     4     5 1   
    12     4     7 1   
    13     4    25 1   
    14     4    37 1   
    15     5     6 1   
    16     5    38 1   
    17     5    39 1   
    18     6    15 1   
    19     6    40 1   
    20     6    41 1   
    21     7    27 2   
    22     7    31 1   
    23     8    17 1   
    24     8    28 1   
    25     8    42 1   
    26     8    65 1   
    27     9    16 2   
    28     9    31 1   
    29     9    43 1   
    30    10    14 1   
    31    10    26 1   
    32    10    44 1   
    33    11    12 1   
    34    11    45 1   
    35    11    46 1   
    36    12    13 1   
    37    12    47 1   
    38    12    48 1   
    39    13    49 1   
    40    13    50 1   
    41    14    25 1   
    42    14    29 2   
    43    15    25 1   
    44    15    51 1   
    45    15    52 1   
    46    16    27 1   
    47    16    66 1   
    48    17    53 1   
    49    17    54 1   
    50    17    55 1   
    51    18    19 ar  
    52    18    20 ar  
    53    18    66 1   
    54    19    21 ar  
    55    19    59 1   
    56    20    22 ar  
    57    20    60 1   
    58    21    23 ar  
    59    21    61 1   
    60    22    23 ar  
    61    22    62 1   
    62    23    24 1   
    63    26    63 1   
    64    26    65 1   
    65    28    64 1   
    66    28    67 1   
    67    30    66 2   
    68    56    67 1   
    69    57    67 1   
    70    58    67 1   
    71    65    68 2   
@<TRIPOS>SUBSTRUCTURE
     1 IUN         1 TEMP              0 ****  ****    0 ROOT
