@<TRIPOS>MOLECULE
IUO
   40    42     1     0     0
SMALL
No Charge or Current Charge


@<TRIPOS>ATOM
      1 C2         -33.1930    -7.6260   -15.1190 ca         1 IUO       0.176000
      2 C3         -32.9200    -6.2540   -15.2290 ca         1 IUO      -0.121000
      3 C4         -33.3480    -5.5280   -16.3530 ca         1 IUO      -0.025000
      4 C5         -34.0670    -6.1660   -17.3850 ca         1 IUO      -0.149600
      5 C6         -34.3150    -7.5540   -17.2870 ca         1 IUO      -0.024000
      6 C12        -34.4910    -5.3660   -18.5960 c          1 IUO       0.618700
      7 Cl1        -32.5760    -8.4820   -13.7040 cl         1 IUO      -0.130000
      8 C1         -33.8950    -8.2850   -16.1520 ca         1 IUO      -0.177200
      9 N7         -34.1860    -9.7390   -16.0760 no         1 IUO       0.697200
     10 O8         -34.0630   -10.3990   -17.1150 o          1 IUO      -0.380000
     11 O10        -34.7410   -10.1660   -15.0550 o          1 IUO      -0.380000
     12 O13        -33.8030    -4.4340   -18.9940 o          1 IUO      -0.583100
     13 N14        -35.6350    -5.7780   -19.3150 n          1 IUO      -0.405800
     14 C15        -35.9350    -5.2290   -20.6690 c6         1 IUO       0.093000
     15 C17        -37.0380    -4.1360   -20.6360 c6         1 IUO       0.165800
     16 C16        -36.8690    -6.2680   -18.6280 c6         1 IUO       0.093000
     17 C18        -37.9920    -5.1930   -18.5920 c6         1 IUO       0.165800
     18 N19        -38.2670    -4.6250   -19.9440 nh         1 IUO      -0.769400
     19 C20        -39.5460    -4.0680   -20.2320 ca         1 IUO       0.225000
     20 C21        -40.7270    -4.8590   -20.2120 ca         1 IUO       0.157000
     21 F26        -40.6710    -6.1860   -19.9380 f          1 IUO      -0.176000
     22 C25        -39.6640    -2.6970   -20.5450 ca         1 IUO      -0.132000
     23 C24        -40.9190    -2.1270   -20.8280 ca         1 IUO      -0.106000
     24 C23        -42.0770    -2.9200   -20.8040 ca         1 IUO      -0.100000
     25 C22        -41.9800    -4.2870   -20.4970 ca         1 IUO      -0.136000
     26 H1         -32.3670    -5.7500   -14.4410 ha         1 IUO       0.145000
     27 H2         -33.1240    -4.4640   -16.4180 ha         1 IUO       0.142000
     28 H3         -34.8270    -8.0720   -18.0970 ha         1 IUO       0.155000
     29 H4         -36.2760    -6.0530   -21.3120 h1         1 IUO       0.068700
     30 H5         -35.0280    -4.8190   -21.1330 h1         1 IUO       0.068700
     31 H6         -36.6440    -3.2480   -20.1200 h1         1 IUO       0.049700
     32 H7         -37.2710    -3.8440   -21.6700 h1         1 IUO       0.049700
     33 H8         -37.2410    -7.1560   -19.1580 h1         1 IUO       0.068700
     34 H9         -36.6580    -6.5690   -17.5940 h1         1 IUO       0.068700
     35 H10        -37.6860    -4.3860   -17.9100 h1         1 IUO       0.049700
     36 H11        -38.8980    -5.6480   -18.1650 h1         1 IUO       0.049700
     37 H12        -38.7840    -2.0610   -20.5590 ha         1 IUO       0.117000
     38 H13        -40.9930    -1.0670   -21.0650 ha         1 IUO       0.119000
     39 H14        -43.0460    -2.4780   -21.0240 ha         1 IUO       0.120000
     40 H15        -42.8720    -4.9070   -20.4810 ha         1 IUO       0.133000
@<TRIPOS>BOND
     1     1     2 ar  
     2     1     7 1   
     3     1     8 ar  
     4     2     3 ar  
     5     2    26 1   
     6     3     4 ar  
     7     3    27 1   
     8     4     5 ar  
     9     4     6 1   
    10     5     8 ar  
    11     5    28 1   
    12     6    12 2   
    13     6    13 1   
    14     8     9 1   
    15     9    10 1   
    16     9    11 1   
    17    13    14 1   
    18    13    16 1   
    19    14    15 1   
    20    14    29 1   
    21    14    30 1   
    22    15    18 1   
    23    15    31 1   
    24    15    32 1   
    25    16    17 1   
    26    16    33 1   
    27    16    34 1   
    28    17    18 1   
    29    17    35 1   
    30    17    36 1   
    31    18    19 1   
    32    19    20 ar  
    33    19    22 ar  
    34    20    21 1   
    35    20    25 ar  
    36    22    23 ar  
    37    22    37 1   
    38    23    24 ar  
    39    23    38 1   
    40    24    25 ar  
    41    24    39 1   
    42    25    40 1   
@<TRIPOS>SUBSTRUCTURE
     1 IUO         1 TEMP              0 ****  ****    0 ROOT
