@<TRIPOS>MOLECULE
IUO
   40    42     1     0     0
SMALL
bcc


@<TRIPOS>ATOM
      1 C2         -33.4330    -7.4990   -15.1040 ca         1 IUO       0.084400
      2 C3         -33.3270    -6.1200   -15.2190 ca         1 IUO      -0.139000
      3 C4         -33.6990    -5.4840   -16.3890 ca         1 IUO      -0.043000
      4 C5         -34.1990    -6.2100   -17.4640 ca         1 IUO      -0.149600
      5 C6         -34.2830    -7.5900   -17.3660 ca         1 IUO      -0.042000
      6 C12        -34.4900    -5.5030   -18.7530 c          1 IUO       0.685700
      7 CL1        -32.8910    -8.2380   -13.6530 cl         1 IUO      -0.038400
      8 C1         -33.9110    -8.2250   -16.1910 ca         1 IUO      -0.177200
      9 N7         -34.0460    -9.6740   -16.1510 no         1 IUO       0.317200
     10 O8         -33.7460   -10.2820   -17.1490 o          1 IUO      -0.190000
     11 O10        -34.4690   -10.1720   -15.1390 o          1 IUO      -0.190000
     12 O13        -33.6320    -4.7700   -19.2200 o          1 IUO      -0.583100
     13 N14        -35.6690    -5.7580   -19.3540 n          1 IUO      -0.472800
     14 C15        -35.9500    -5.2390   -20.6810 c6         1 IUO       0.093000
     15 C17        -37.0640    -4.2070   -20.6390 c6         1 IUO       0.165800
     16 C16        -36.8480    -6.3000   -18.6990 c6         1 IUO       0.093000
     17 C18        -37.9600    -5.2640   -18.6840 c6         1 IUO       0.165800
     18 N19        -38.2420    -4.8000   -20.0360 nh         1 IUO      -0.631000
     19 C20        -39.4510    -4.1120   -20.2060 ca         1 IUO       0.086600
     20 C21        -40.6600    -4.8060   -20.1040 ca         1 IUO       0.121900
     21 F26        -40.6210    -6.1240   -19.8370 f          1 IUO      -0.140900
     22 C25        -39.5350    -2.7560   -20.5210 ca         1 IUO      -0.150000
     23 C24        -40.7620    -2.1340   -20.7200 ca         1 IUO      -0.124000
     24 C23        -41.9400    -2.8520   -20.5900 ca         1 IUO      -0.118000
     25 C22        -41.8870    -4.2050   -20.2740 ca         1 IUO      -0.154000
     26 H1         -32.9390    -5.5450   -14.3890 ha         1 IUO       0.163000
     27 H2         -33.6010    -4.4080   -16.4570 ha         1 IUO       0.160000
     28 H3         -34.6470    -8.1770   -18.1990 ha         1 IUO       0.173000
     29 H4         -36.2550    -6.0750   -21.3170 h1         1 IUO       0.068700
     30 H5         -35.0500    -4.8020   -21.1030 h1         1 IUO       0.068700
     31 H6         -36.7140    -3.3190   -20.0930 h1         1 IUO       0.049700
     32 H7         -37.2920    -3.9010   -21.6610 h1         1 IUO       0.049700
     33 H8         -37.1790    -7.1940   -19.2330 h1         1 IUO       0.068700
     34 H9         -36.6250    -6.5840   -17.6740 h1         1 IUO       0.068700
     35 H10        -37.6630    -4.4270   -18.0350 h1         1 IUO       0.049700
     36 H11        -38.8450    -5.7190   -18.2440 h1         1 IUO       0.049700
     37 H12        -38.6300    -2.1710   -20.6140 ha         1 IUO       0.135000
     38 H13        -40.7910    -1.0810   -20.9670 ha         1 IUO       0.137000
     39 H14        -42.8980    -2.3720   -20.7370 ha         1 IUO       0.138000
     40 H15        -42.7900    -4.7950   -20.1830 ha         1 IUO       0.151000
@<TRIPOS>BOND
     1     1     2 ar  
     2     1     7 1   
     3     1     8 ar  
     4     2     3 ar  
     5     2    26 1   
     6     3     4 ar  
     7     3    27 1   
     8     4     5 ar  
     9     4     6 1   
    10     5     8 ar  
    11     5    28 1   
    12     6    12 2   
    13     6    13 1   
    14     8     9 1   
    15     9    10 1   
    16     9    11 1   
    17    13    14 1   
    18    13    16 1   
    19    14    15 1   
    20    14    29 1   
    21    14    30 1   
    22    15    18 1   
    23    15    31 1   
    24    15    32 1   
    25    16    17 1   
    26    16    33 1   
    27    16    34 1   
    28    17    18 1   
    29    17    35 1   
    30    17    36 1   
    31    18    19 1   
    32    19    20 ar  
    33    19    22 ar  
    34    20    21 1   
    35    20    25 ar  
    36    22    23 ar  
    37    22    37 1   
    38    23    24 ar  
    39    23    38 1   
    40    24    25 ar  
    41    24    39 1   
    42    25    40 1   
@<TRIPOS>SUBSTRUCTURE
     1 IUO         1 TEMP              0 ****  ****    0 ROOT
