@<TRIPOS>MOLECULE
IUQ
   32    34     1     0     0
SMALL
No Charge or Current Charge


@<TRIPOS>ATOM
      1 C10        -24.5660    32.3050   -24.9290 c6         1 IUQ       0.164600
      2 C13        -22.8730    30.8310   -23.0470 c6         1 IUQ      -0.120400
      3 C01        -22.9590    23.3000   -25.6820 c3         1 IUQ       0.223100
      4 C03        -23.1660    25.8090   -25.1570 ca         1 IUQ       0.455900
      5 C04        -22.6110    27.1020   -25.2620 ca         1 IUQ      -0.106600
      6 C06        -21.3950    28.8370   -25.6770 cc         1 IUQ       0.412700
      7 C08        -22.8640    30.6260   -24.5840 c6         1 IUQ       0.327300
      8 C11        -24.6650    32.6020   -23.4120 c6         1 IUQ      -0.114400
      9 C12        -23.3290    32.2700   -22.7000 c6         1 IUQ      -0.072400
     10 C14        -23.2990    28.1530   -24.7050 ca         1 IUQ       0.152500
     11 C16        -24.9340    26.7150   -24.0160 ca         1 IUQ       0.282000
     12 N05        -21.4150    27.5040   -25.8750 nd         1 IUQ      -0.550100
     13 N07        -22.5190    29.2470   -24.9650 na         1 IUQ      -0.284300
     14 N15        -24.4750    27.9860   -24.0690 nb         1 IUQ      -0.195000
     15 N18        -24.3400    25.6120   -24.5270 nb         1 IUQ      -0.283000
     16 O09        -24.1600    30.9350   -25.1360 os         1 IUQ      -0.459000
     17 Cl17       -26.4650    26.4680   -23.1920 cl         1 IUQ      -0.149000
     18 H102       -23.8370    32.9770   -25.4040 h1         1 IUQ       0.049700
     19 H101       -25.5420    32.4650   -25.4080 h1         1 IUQ       0.049700
     20 H131       -23.5490    30.1090   -22.5700 hc         1 IUQ       0.074200
     21 H132       -21.8710    30.6420   -22.6380 hc         1 IUQ       0.074200
     22 H012       -22.2290    22.6590   -26.1960 h1         1 IUQ       0.047700
     23 H013       -23.0650    22.9420   -24.6490 h1         1 IUQ       0.047700
     24 H011       -23.9280    23.1930   -26.1880 h1         1 IUQ       0.047700
     25 H061       -20.6280    29.5270   -26.0080 h5         1 IUQ       0.067800
     26 H081       -22.1050    31.2770   -25.0410 h2         1 IUQ       0.043700
     27 H111       -24.9260    33.6570   -23.2540 hc         1 IUQ       0.058700
     28 H112       -25.4790    32.0070   -22.9760 hc         1 IUQ       0.058700
     29 H121       -22.5560    32.9870   -23.0140 hc         1 IUQ       0.045700
     30 H122       -23.4390    32.3830   -21.6130 hc         1 IUQ       0.045700
     31 H021       -21.6330    24.9320   -26.1640 hn         1 IUQ       0.517000
     32 N02        -22.5170    24.7060   -25.7010 nu         1 IUQ      -0.911100
@<TRIPOS>BOND
     1     1     8 1   
     2     1    16 1   
     3     1    18 1   
     4     1    19 1   
     5     2     7 1   
     6     2     9 1   
     7     2    20 1   
     8     2    21 1   
     9     3    22 1   
    10     3    23 1   
    11     3    24 1   
    12     3    32 1   
    13     4     5 ar  
    14     4    15 ar  
    15     4    32 1   
    16     5    10 ar  
    17     5    12 1   
    18     6    12 2   
    19     6    13 1   
    20     6    25 1   
    21     7    13 1   
    22     7    16 1   
    23     7    26 1   
    24     8     9 1   
    25     8    27 1   
    26     8    28 1   
    27     9    29 1   
    28     9    30 1   
    29    10    13 1   
    30    10    14 ar  
    31    11    14 ar  
    32    11    15 ar  
    33    11    17 1   
    34    31    32 1   
@<TRIPOS>SUBSTRUCTURE
     1 IUQ         1 TEMP              0 ****  ****    0 ROOT
