@<TRIPOS>MOLECULE
IUQ
   32    34     1     0     0
SMALL
abcg2


@<TRIPOS>ATOM
      1 C10        -24.4450    32.3550   -24.9530 c6         1 IUQ       0.164600
      2 C13        -23.0000    30.7760   -23.0270 c6         1 IUQ      -0.120400
      3 C01        -23.0040    23.3610   -25.6500 c3         1 IUQ       0.223100
      4 C03        -23.0860    25.7780   -25.1930 ca         1 IUQ       0.455900
      5 C04        -22.5730    27.0890   -25.3140 ca         1 IUQ      -0.106600
      6 C06        -21.5160    28.8880   -25.7290 cc         1 IUQ       0.412700
      7 C08        -22.8890    30.6200   -24.5390 c6         1 IUQ       0.327300
      8 C11        -24.6450    32.6180   -23.4680 c6         1 IUQ      -0.114400
      9 C12        -23.3920    32.2160   -22.6900 c6         1 IUQ      -0.072400
     10 C14        -23.2800    28.1040   -24.6740 ca         1 IUQ       0.152500
     11 C16        -24.7740    26.6770   -23.9290 ca         1 IUQ       0.282000
     12 N05        -21.4690    27.6010   -25.9670 nd         1 IUQ      -0.550100
     13 N07        -22.5850    29.2610   -24.9450 na         1 IUQ      -0.284300
     14 N15        -24.4080    27.9410   -23.9600 nb         1 IUQ      -0.195000
     15 N18        -24.2160    25.6080   -24.4740 nb         1 IUQ      -0.283000
     16 O09        -24.0870    30.9870   -25.2030 os         1 IUQ      -0.459000
     17 CL17       -26.2450    26.3510   -23.0150 cl         1 IUQ      -0.149000
     18 H102       -23.6560    33.0070   -25.3510 h1         1 IUQ       0.049700
     19 H101       -25.3560    32.5270   -25.5230 h1         1 IUQ       0.049700
     20 H131       -23.7560    30.0820   -22.6570 hc         1 IUQ       0.074200
     21 H132       -22.0430    30.5080   -22.5760 hc         1 IUQ       0.074200
     22 H012       -22.3320    22.7090   -26.2020 h1         1 IUQ       0.047700
     23 H013       -23.0410    23.0380   -24.6080 h1         1 IUQ       0.047700
     24 H011       -24.0070    23.2800   -26.0720 h1         1 IUQ       0.047700
     25 H061       -20.8080    29.6220   -26.0810 h5         1 IUQ       0.067800
     26 H081       -22.0630    31.2370   -24.9120 h2         1 IUQ       0.043700
     27 H111       -24.8740    33.6760   -23.3210 hc         1 IUQ       0.058700
     28 H112       -25.5050    32.0410   -23.1160 hc         1 IUQ       0.058700
     29 H121       -22.5700    32.8890   -22.9540 hc         1 IUQ       0.045700
     30 H122       -23.5540    32.3160   -21.6150 hc         1 IUQ       0.045700
     31 H021       -21.6590    24.8830   -26.2850 hn         1 IUQ       0.517000
     32 N02        -22.5000    24.7190   -25.7570 nu         1 IUQ      -0.911100
@<TRIPOS>BOND
     1     1     8 1   
     2     1    16 1   
     3     1    18 1   
     4     1    19 1   
     5     2     7 1   
     6     2     9 1   
     7     2    20 1   
     8     2    21 1   
     9     3    22 1   
    10     3    23 1   
    11     3    24 1   
    12     3    32 1   
    13     4     5 ar  
    14     4    15 ar  
    15     4    32 1   
    16     5    10 ar  
    17     5    12 1   
    18     6    12 2   
    19     6    13 1   
    20     6    25 1   
    21     7    13 1   
    22     7    16 1   
    23     7    26 1   
    24     8     9 1   
    25     8    27 1   
    26     8    28 1   
    27     9    29 1   
    28     9    30 1   
    29    10    13 1   
    30    10    14 ar  
    31    11    14 ar  
    32    11    15 ar  
    33    11    17 1   
    34    31    32 1   
@<TRIPOS>SUBSTRUCTURE
     1 IUQ         1 TEMP              0 ****  ****    0 ROOT
