@<TRIPOS>MOLECULE
IUR
   12    12     1     0     0
SMALL
No Charge or Current Charge


@<TRIPOS>ATOM
      1 N1           1.3600    -0.0080     2.3530 ns         1 IUR      -0.514600
      2 C2           0.2420    -0.0020     3.1360 c          1 IUR       0.619000
      3 O2           0.2910    -0.0130     4.3500 o          1 IUR      -0.540000
      4 N3          -0.9250     0.0160     2.4440 ns         1 IUR      -0.469500
      5 C4          -1.1000     0.0290     1.0920 c          1 IUR       0.601200
      6 O4          -2.2160     0.0450     0.5960 o          1 IUR      -0.501000
      7 C5           0.1630     0.0220     0.3180 cc         1 IUR      -0.183400
      8 C6           1.3770     0.0040     0.9670 cd         1 IUR       0.045600
      9 I5           0.0580     0.0410    -1.8080 i          1 IUR      -0.085800
     10 H1           2.2280    -0.0210     2.8820 hn         1 IUR       0.465000
     11 H3          -1.7660     0.0200     2.9990 hn         1 IUR       0.346500
     12 H6           2.3540    -0.0030     0.4860 h4         1 IUR       0.217000
@<TRIPOS>BOND
     1     1     2 1   
     2     1     8 1   
     3     1    10 1   
     4     2     3 2   
     5     2     4 1   
     6     4     5 1   
     7     4    11 1   
     8     5     6 2   
     9     5     7 1   
    10     7     8 2   
    11     7     9 1   
    12     8    12 1   
@<TRIPOS>SUBSTRUCTURE
     1 IUR         1 TEMP              0 ****  ****    0 ROOT
