@<TRIPOS>MOLECULE
IUR
   12    12     1     0     0
SMALL
bcc


@<TRIPOS>ATOM
      1 N1           1.3710    -0.0080     2.3530 ns         1 IUR      -0.468100
      2 C2           0.2510    -0.0020     3.1450 c          1 IUR       0.828500
      3 O2           0.2950    -0.0110     4.3550 o          1 IUR      -0.615500
      4 N3          -0.9230     0.0150     2.4350 ns         1 IUR      -0.603500
      5 C4          -1.0910     0.0290     1.0600 c          1 IUR       0.743700
      6 O4          -2.1990     0.0450     0.5670 o          1 IUR      -0.576500
      7 C5           0.1630     0.0220     0.3280 cc         1 IUR      -0.183400
      8 C6           1.3300     0.0040     0.9990 cd         1 IUR       0.095600
      9 I5           0.0780     0.0410    -1.7470 i          1 IUR      -0.085800
     10 H1           2.2670    -0.0220     2.8180 hn         1 IUR       0.351500
     11 H3          -1.7700     0.0200     2.9910 hn         1 IUR       0.346500
     12 H6           2.2930    -0.0030     0.5090 h4         1 IUR       0.167000
@<TRIPOS>BOND
     1     1     2 1   
     2     1     8 1   
     3     1    10 1   
     4     2     3 2   
     5     2     4 1   
     6     4     5 1   
     7     4    11 1   
     8     5     6 2   
     9     5     7 1   
    10     7     8 2   
    11     7     9 1   
    12     8    12 1   
@<TRIPOS>SUBSTRUCTURE
     1 IUR         1 TEMP              0 ****  ****    0 ROOT
