@<TRIPOS>MOLECULE
IUS
   87    92     1     0     0
SMALL
No Charge or Current Charge


@<TRIPOS>ATOM
      1 C13         32.4590    -4.9840    17.8850 c6         1 IUS      -0.080300
      2 C18         33.9490    -5.2430    21.1500 cc         1 IUS       0.442300
      3 C17         32.8820    -5.2970    19.3260 cd         1 IUS       0.566300
      4 C16         33.2370    -4.9170    15.4280 c6         1 IUS      -0.065067
      5 C15         33.6320    -5.2800    16.8930 c6         1 IUS      -0.063067
      6 C20         34.1410    -4.4280    23.5410 c3         1 IUS      -0.119100
      7 C21         35.6870    -6.2580    22.6910 c3         1 IUS      -0.119100
      8 C22         30.7270   -10.3440    13.3700 ca         1 IUS      -0.096500
      9 C23         30.9680   -11.7280    13.3760 ca         1 IUS      -0.101000
     10 C24         30.2980   -12.5890    12.4780 ca         1 IUS      -0.102300
     11 C11         30.8370    -5.4970    15.9460 c6         1 IUS      -0.065067
     12 C12         31.2200    -5.8240    17.4210 c6         1 IUS      -0.063067
     13 C34         29.6300   -14.9650    11.6680 c3         1 IUS      -0.100100
     14 C27         32.5960    -5.0190    11.9500 c          1 IUS       0.621100
     15 C33         32.0570   -14.3670    12.0680 c3         1 IUS      -0.100100
     16 C1          30.5980    -7.3670    12.7130 ca         1 IUS      -0.118000
     17 C2          29.5530    -8.2880    12.4570 cp         1 IUS      -0.015000
     18 C3          28.2660    -7.7660    12.1820 ca         1 IUS      -0.105000
     19 C4          28.0390    -6.3820    12.1520 ca         1 IUS      -0.099000
     20 C5          29.0930    -5.4910    12.4090 ca         1 IUS      -0.126000
     21 C6          30.3730    -5.9760    12.7380 ca         1 IUS      -0.044000
     22 C7          29.8070    -9.7630    12.4660 cp         1 IUS      -0.045000
     23 C8          32.0810    -3.4750    17.7440 c6         1 IUS      -0.063067
     24 C9          31.6620    -3.1380    16.2810 c6         1 IUS      -0.065067
     25 C10         31.7680    -4.3910    15.3530 c6         1 IUS      -0.067000
     26 C14         31.3560    -3.9950    13.8930 c3         1 IUS       0.114000
     27 N2          33.9480    -4.6880    19.9530 nd         1 IUS      -0.690000
     28 O1          32.9550    -6.1580    21.3120 os         1 IUS      -0.092700
     29 N3          32.2530    -6.1820    20.0900 nc         1 IUS      -0.373300
     30 F1          35.8300    -4.0390    21.9760 f          1 IUS      -0.237000
     31 C25         29.3790   -12.0140    11.5680 ca         1 IUS      -0.101000
     32 C26         29.1400   -10.6290    11.5660 ca         1 IUS      -0.096500
     33 O2          33.5270    -4.2750    12.2480 o          1 IUS      -0.586100
     34 C28         32.4550    -6.0030    10.6870 cy         1 IUS      -0.164700
     35 C29         32.3220    -5.2930     8.6430 cy         1 IUS       0.093000
     36 C30         31.3710    -5.1660     9.8960 cy         1 IUS      -0.096400
     37 C31         33.5040    -5.3620     9.6890 cy         1 IUS      -0.096400
     38 O3          32.3560    -4.0900     7.8760 oh         1 IUS      -0.621000
     39 O4          30.4760   -14.5570    13.8620 oh         1 IUS      -0.655000
     40 C35         32.1110    -6.5210     7.6800 c3         1 IUS       0.321000
     41 F2          30.9480    -6.3810     6.9990 f          1 IUS      -0.108667
     42 F3          32.0650    -7.6930     8.3560 f          1 IUS      -0.108667
     43 F4          33.1270    -6.5880     6.7870 f          1 IUS      -0.108667
     44 H18         33.3600    -5.8030    14.7900 hc         1 IUS       0.045867
     45 H17         33.9300    -4.1580    15.0390 hc         1 IUS       0.045867
     46 H15         33.9130    -6.3410    16.9510 hc         1 IUS       0.052700
     47 H16         34.5270    -4.7120    17.1800 hc         1 IUS       0.052700
     48 H21         34.8330    -4.1990    24.3610 hc         1 IUS       0.060867
     49 H19         33.6060    -3.5070    23.2810 hc         1 IUS       0.060867
     50 H20         33.4090    -5.1580    23.9070 hc         1 IUS       0.060867
     51 H22         36.4010    -6.0560    23.4980 hc         1 IUS       0.060867
     52 H23         35.0050    -7.0480    23.0280 hc         1 IUS       0.060867
     53 H24         36.2470    -6.6350    21.8270 hc         1 IUS       0.060867
     54 H25         31.2520    -9.7180    14.0870 ha         1 IUS       0.115000
     55 H26         31.6810   -12.1330    14.0900 ha         1 IUS       0.119000
     56 H10         29.7860    -5.1790    15.8940 hc         1 IUS       0.045867
     57 H9          30.9090    -6.4170    15.3520 hc         1 IUS       0.045867
     58 H12         30.3590    -5.6240    18.0740 hc         1 IUS       0.052700
     59 H11         31.4320    -6.8990    17.5110 hc         1 IUS       0.052700
     60 H39         28.5880   -14.7880    11.9610 hc         1 IUS       0.045200
     61 H41         29.7350   -14.7410    10.6000 hc         1 IUS       0.045200
     62 H40         29.8390   -16.0340    11.8020 hc         1 IUS       0.045200
     63 H38         32.2920   -15.4370    12.1040 hc         1 IUS       0.045200
     64 H36         32.2120   -14.0180    11.0400 hc         1 IUS       0.045200
     65 H37         32.7720   -13.8430    12.7140 hc         1 IUS       0.045200
     66 H1          31.5990    -7.7410    12.9120 ha         1 IUS       0.126000
     67 H2          27.4350    -8.4410    11.9890 ha         1 IUS       0.122000
     68 H3          27.0490    -5.9980    11.9170 ha         1 IUS       0.119000
     69 H4          28.9100    -4.4210    12.3410 ha         1 IUS       0.121000
     70 H5          32.9290    -2.8410    18.0370 hc         1 IUS       0.052700
     71 H6          31.2610    -3.2250    18.4320 hc         1 IUS       0.052700
     72 H8          32.2970    -2.3270    15.8960 hc         1 IUS       0.045867
     73 H7          30.6340    -2.7490    16.2720 hc         1 IUS       0.045867
     74 H13         31.9370    -3.1130    13.5940 h1         1 IUS       0.059200
     75 H14         30.3130    -3.6590    13.9260 h1         1 IUS       0.059200
     76 H27         28.8430   -12.6220    10.8460 ha         1 IUS       0.119000
     77 H28         28.4380   -10.2200    10.8440 ha         1 IUS       0.115000
     78 H29         32.3900    -7.0860    10.8220 hc         1 IUS       0.095700
     79 H31         31.1950    -4.1310    10.2170 hc         1 IUS       0.077950
     80 H30         30.3940    -5.6500     9.7870 hc         1 IUS       0.077950
     81 H33         34.3360    -6.0170     9.4070 hc         1 IUS       0.077950
     82 H32         33.9290    -4.3760     9.9100 hc         1 IUS       0.077950
     83 H34         32.5340    -3.3410     8.4850 ho         1 IUS       0.462000
     84 H35         29.6410   -14.1720    14.2030 ho         1 IUS       0.443000
     85 C19         34.9060    -4.9770    22.3140 c3         1 IUS       0.195700
     86 N1          31.4810    -5.0600    12.8530 n          1 IUS      -0.239400
     87 C32         30.6010   -14.1050    12.5140 c3         1 IUS       0.231300
@<TRIPOS>BOND
     1     1     3 1   
     2     1     5 1   
     3     1    12 1   
     4     1    23 1   
     5     2    27 2   
     6     2    28 1   
     7     2    85 1   
     8     3    27 1   
     9     3    29 2   
    10     4     5 1   
    11     4    25 1   
    12     4    44 1   
    13     4    45 1   
    14     5    46 1   
    15     5    47 1   
    16     6    48 1   
    17     6    49 1   
    18     6    50 1   
    19     6    85 1   
    20     7    51 1   
    21     7    52 1   
    22     7    53 1   
    23     7    85 1   
    24     8     9 ar  
    25     8    22 ar  
    26     8    54 1   
    27     9    10 ar  
    28     9    55 1   
    29    10    31 ar  
    30    10    87 1   
    31    11    12 1   
    32    11    25 1   
    33    11    56 1   
    34    11    57 1   
    35    12    58 1   
    36    12    59 1   
    37    13    60 1   
    38    13    61 1   
    39    13    62 1   
    40    13    87 1   
    41    14    33 2   
    42    14    34 1   
    43    14    86 1   
    44    15    63 1   
    45    15    64 1   
    46    15    65 1   
    47    15    87 1   
    48    16    17 ar  
    49    16    21 ar  
    50    16    66 1   
    51    17    18 ar  
    52    17    22 1   
    53    18    19 ar  
    54    18    67 1   
    55    19    20 ar  
    56    19    68 1   
    57    20    21 ar  
    58    20    69 1   
    59    21    86 1   
    60    22    32 ar  
    61    23    24 1   
    62    23    70 1   
    63    23    71 1   
    64    24    25 1   
    65    24    72 1   
    66    24    73 1   
    67    25    26 1   
    68    26    74 1   
    69    26    75 1   
    70    26    86 1   
    71    28    29 1   
    72    30    85 1   
    73    31    32 ar  
    74    31    76 1   
    75    32    77 1   
    76    34    36 1   
    77    34    37 1   
    78    34    78 1   
    79    35    36 1   
    80    35    37 1   
    81    35    38 1   
    82    35    40 1   
    83    36    79 1   
    84    36    80 1   
    85    37    81 1   
    86    37    82 1   
    87    38    83 1   
    88    39    84 1   
    89    39    87 1   
    90    40    41 1   
    91    40    42 1   
    92    40    43 1   
@<TRIPOS>SUBSTRUCTURE
     1 IUS         1 TEMP              0 ****  ****    0 ROOT
