@<TRIPOS>MOLECULE
IUS
   87    92     1     0     0
SMALL
abcg2


@<TRIPOS>ATOM
      1 C13         32.3570    -4.9800    17.8750 c6         1 IUS      -0.080300
      2 C18         33.7390    -5.3170    21.0830 cc         1 IUS       0.442300
      3 C17         32.7010    -5.3070    19.2880 cd         1 IUS       0.566300
      4 C16         33.2220    -4.9850    15.5100 c6         1 IUS      -0.065067
      5 C15         33.4170    -5.5650    16.9240 c6         1 IUS      -0.063067
      6 C20         33.9780    -4.5610    23.4470 c3         1 IUS      -0.119100
      7 C21         35.3850    -6.4600    22.5550 c3         1 IUS      -0.119100
      8 C22         30.8020   -10.1110    13.4950 ca         1 IUS      -0.096500
      9 C23         31.1270   -11.4560    13.3900 ca         1 IUS      -0.101000
     10 C24         30.5700   -12.2550    12.3970 ca         1 IUS      -0.102300
     11 C11         30.8060    -5.3500    15.9460 c6         1 IUS      -0.065067
     12 C12         30.9850    -5.5210    17.4670 c6         1 IUS      -0.063067
     13 C34         29.7170   -14.6120    12.1840 c3         1 IUS      -0.100100
     14 C27         32.5790    -4.9270    12.0330 c          1 IUS       0.621100
     15 C33         31.7770   -13.8800    10.9530 c3         1 IUS      -0.100100
     16 C1          30.6560    -7.1640    12.8930 ca         1 IUS      -0.118000
     17 C2          29.6240    -8.0670    12.6500 cp         1 IUS      -0.015000
     18 C3          28.3470    -7.5660    12.3990 ca         1 IUS      -0.105000
     19 C4          28.1230    -6.1970    12.3760 ca         1 IUS      -0.099000
     20 C5          29.1710    -5.3070    12.5600 ca         1 IUS      -0.126000
     21 C6          30.4490    -5.7950    12.8040 ca         1 IUS      -0.044000
     22 C7          29.9110    -9.5150    12.6060 cp         1 IUS      -0.045000
     23 C8          32.3400    -3.4530    17.6980 c6         1 IUS      -0.063067
     24 C9          31.8050    -3.1110    16.2970 c6         1 IUS      -0.065067
     25 C10         31.8330    -4.3520    15.3930 c6         1 IUS      -0.067000
     26 C14         31.5090    -3.8880    13.9730 c3         1 IUS       0.114000
     27 N2          33.8290    -4.8240    19.8990 nd         1 IUS      -0.690000
     28 O1          32.6590    -6.0600    21.2550 os         1 IUS      -0.092700
     29 N3          31.9750    -6.0510    20.0620 nc         1 IUS      -0.373300
     30 F1          35.6370    -4.2350    21.7990 f          1 IUS      -0.237000
     31 C25         29.6650   -11.6600    11.5170 ca         1 IUS      -0.101000
     32 C26         29.3400   -10.3190    11.6180 ca         1 IUS      -0.096500
     33 O2          33.5560    -4.2070    12.1520 o          1 IUS      -0.586100
     34 C28         32.4620    -5.8770    10.8610 cy         1 IUS      -0.164700
     35 C29         32.1650    -5.9190     8.7210 cy         1 IUS       0.093000
     36 C30         31.2240    -5.8060     9.9400 cy         1 IUS      -0.096400
     37 C31         33.3570    -5.5830     9.6450 cy         1 IUS      -0.096400
     38 O3          31.9280    -5.1140     7.6120 oh         1 IUS      -0.621000
     39 O4          31.8060   -14.1440    13.2850 oh         1 IUS      -0.655000
     40 C35         32.2090    -7.3280     8.1560 c3         1 IUS       0.321000
     41 F2          31.0450    -7.6630     7.5870 f          1 IUS      -0.108667
     42 F3          32.4560    -8.2470     9.0990 f          1 IUS      -0.108667
     43 F4          33.1590    -7.4600     7.2240 f          1 IUS      -0.108667
     44 H18         33.3460    -5.7750    14.7660 hc         1 IUS       0.045867
     45 H17         33.9830    -4.2290    15.2990 hc         1 IUS       0.045867
     46 H15         33.3200    -6.6540    16.9160 hc         1 IUS       0.052700
     47 H16         34.4200    -5.3430    17.2930 hc         1 IUS       0.052700
     48 H21         34.7030    -4.3910    24.2430 hc         1 IUS       0.060867
     49 H19         33.4950    -3.6150    23.2040 hc         1 IUS       0.060867
     50 H20         33.2220    -5.2470    23.8260 hc         1 IUS       0.060867
     51 H22         36.1000    -6.3070    23.3640 hc         1 IUS       0.060867
     52 H23         34.6670    -7.2110    22.8790 hc         1 IUS       0.060867
     53 H24         35.9170    -6.8450    21.6850 hc         1 IUS       0.060867
     54 H25         31.2500    -9.5220    14.2870 ha         1 IUS       0.115000
     55 H26         31.8350   -11.8750    14.0920 ha         1 IUS       0.119000
     56 H10         29.7920    -5.0080    15.7230 hc         1 IUS       0.045867
     57 H9          30.9230    -6.3160    15.4530 hc         1 IUS       0.045867
     58 H12         30.2070    -4.9830    18.0140 hc         1 IUS       0.052700
     59 H11         30.8880    -6.5740    17.7390 hc         1 IUS       0.052700
     60 H39         29.1230   -14.5110    13.0950 hc         1 IUS       0.045200
     61 H41         29.0700   -14.3690    11.3420 hc         1 IUS       0.045200
     62 H40         30.0130   -15.6580    12.0820 hc         1 IUS       0.045200
     63 H38         32.0650   -14.9230    10.8090 hc         1 IUS       0.045200
     64 H36         31.1990   -13.5680    10.0840 hc         1 IUS       0.045200
     65 H37         32.6820   -13.2730    10.9880 hc         1 IUS       0.045200
     66 H1          31.6520    -7.5320    13.1100 ha         1 IUS       0.126000
     67 H2          27.5200    -8.2450    12.2320 ha         1 IUS       0.122000
     68 H3          27.1270    -5.8190    12.1890 ha         1 IUS       0.119000
     69 H4          28.9970    -4.2410    12.4860 ha         1 IUS       0.121000
     70 H5          33.3490    -3.0600    17.8380 hc         1 IUS       0.052700
     71 H6          31.7150    -2.9940    18.4680 hc         1 IUS       0.052700
     72 H8          32.4050    -2.3120    15.8540 hc         1 IUS       0.045867
     73 H7          30.7800    -2.7330    16.3580 hc         1 IUS       0.045867
     74 H13         32.2050    -3.1000    13.6880 h1         1 IUS       0.059200
     75 H14         30.5120    -3.4390    13.9760 h1         1 IUS       0.059200
     76 H27         29.2180   -12.2410    10.7200 ha         1 IUS       0.119000
     77 H28         28.6580    -9.8860    10.8970 ha         1 IUS       0.115000
     78 H29         32.6280    -6.8930    11.2170 hc         1 IUS       0.095700
     79 H31         30.7580    -4.8190     9.9580 hc         1 IUS       0.077950
     80 H30         30.4440    -6.5550    10.0700 hc         1 IUS       0.077950
     81 H33         34.2780    -6.1560     9.5430 hc         1 IUS       0.077950
     82 H32         33.6020    -4.5230     9.5620 hc         1 IUS       0.077950
     83 H34         31.8730    -4.1970     7.9020 ho         1 IUS       0.462000
     84 H35         31.2850   -14.2100    14.0930 ho         1 IUS       0.443000
     85 C19         34.6850    -5.1490    22.2390 c3         1 IUS       0.195700
     86 N1          31.5500    -4.9080    12.9310 n          1 IUS      -0.239400
     87 C32         30.9600   -13.7220    12.2340 c3         1 IUS       0.231300
@<TRIPOS>BOND
     1     1     3 1   
     2     1     5 1   
     3     1    12 1   
     4     1    23 1   
     5     2    27 2   
     6     2    28 1   
     7     2    85 1   
     8     3    27 1   
     9     3    29 2   
    10     4     5 1   
    11     4    25 1   
    12     4    44 1   
    13     4    45 1   
    14     5    46 1   
    15     5    47 1   
    16     6    48 1   
    17     6    49 1   
    18     6    50 1   
    19     6    85 1   
    20     7    51 1   
    21     7    52 1   
    22     7    53 1   
    23     7    85 1   
    24     8     9 ar  
    25     8    22 ar  
    26     8    54 1   
    27     9    10 ar  
    28     9    55 1   
    29    10    31 ar  
    30    10    87 1   
    31    11    12 1   
    32    11    25 1   
    33    11    56 1   
    34    11    57 1   
    35    12    58 1   
    36    12    59 1   
    37    13    60 1   
    38    13    61 1   
    39    13    62 1   
    40    13    87 1   
    41    14    33 2   
    42    14    34 1   
    43    14    86 1   
    44    15    63 1   
    45    15    64 1   
    46    15    65 1   
    47    15    87 1   
    48    16    17 ar  
    49    16    21 ar  
    50    16    66 1   
    51    17    18 ar  
    52    17    22 1   
    53    18    19 ar  
    54    18    67 1   
    55    19    20 ar  
    56    19    68 1   
    57    20    21 ar  
    58    20    69 1   
    59    21    86 1   
    60    22    32 ar  
    61    23    24 1   
    62    23    70 1   
    63    23    71 1   
    64    24    25 1   
    65    24    72 1   
    66    24    73 1   
    67    25    26 1   
    68    26    74 1   
    69    26    75 1   
    70    26    86 1   
    71    28    29 1   
    72    30    85 1   
    73    31    32 ar  
    74    31    76 1   
    75    32    77 1   
    76    34    36 1   
    77    34    37 1   
    78    34    78 1   
    79    35    36 1   
    80    35    37 1   
    81    35    38 1   
    82    35    40 1   
    83    36    79 1   
    84    36    80 1   
    85    37    81 1   
    86    37    82 1   
    87    38    83 1   
    88    39    84 1   
    89    39    87 1   
    90    40    41 1   
    91    40    42 1   
    92    40    43 1   
@<TRIPOS>SUBSTRUCTURE
     1 IUS         1 TEMP              0 ****  ****    0 ROOT
