@<TRIPOS>MOLECULE
IUT
   47    50     1     0     0
SMALL
No Charge or Current Charge


@<TRIPOS>ATOM
      1 C1          -8.2170     8.3980   -22.8880 ca         1 IUT      -0.161000
      2 C2          -7.3650     8.1840   -23.9980 ca         1 IUT      -0.106000
      3 C3          -6.0370     7.7480   -23.8040 ca         1 IUT      -0.137000
      4 C4          -7.7490     8.1800   -21.5740 ca         1 IUT      -0.051000
      5 C5          -6.4230     7.7490   -21.4130 ca         1 IUT      -0.095800
      6 C6          -5.5980     7.5390   -22.4870 ca         1 IUT      -0.049200
      7 N7          -4.3640     7.1170   -22.0240 na         1 IUT      -0.090700
      8 C8          -4.3870     7.0320   -20.6230 cc         1 IUT       0.001700
      9 C9          -5.6610     7.4460   -20.2130 cd         1 IUT      -0.087400
     10 C10         -3.2800     6.6440   -19.7580 ca         1 IUT      -0.050800
     11 C11         -3.2490     6.8010   -22.9310 c3         1 IUT       0.067900
     12 C12         -6.1730     7.6120   -18.7810 c6         1 IUT       0.009500
     13 C13         -5.1570     8.1930   -17.7580 c6         1 IUT      -0.062400
     14 C14         -5.8530     8.4820   -16.4020 c6         1 IUT      -0.041400
     15 C15         -6.5910     7.2390   -15.8150 c6         1 IUT      -0.193700
     16 C16         -7.5120     6.5610   -16.8760 c6         1 IUT      -0.041400
     17 C17         -6.8040     6.3070   -18.2340 c6         1 IUT      -0.062400
     18 C18         -3.2870     5.4000   -19.1010 ca         1 IUT      -0.083500
     19 C19         -2.2060     5.0240   -18.2850 ca         1 IUT      -0.101000
     20 C20         -1.1080     5.8870   -18.1290 ca         1 IUT      -0.086000
     21 C21         -1.0900     7.1250   -18.7950 ca         1 IUT      -0.101000
     22 C22         -2.1710     7.5000   -19.6110 ca         1 IUT      -0.083500
     23 C23         -5.6560     6.2450   -15.0710 c          1 IUT       0.719000
     24 O24         -4.8140     5.6240   -15.7000 o          1 IUT      -0.740500
     25 O25         -5.8190     6.1120   -13.8660 o          1 IUT      -0.740500
     26 H1          -9.2390     8.7320   -23.0480 ha         1 IUT       0.098000
     27 H2          -7.7360     8.3550   -25.0060 ha         1 IUT       0.094000
     28 H3          -5.3790     7.5820   -24.6540 ha         1 IUT       0.102000
     29 H4          -8.4000     8.3410   -20.7180 ha         1 IUT       0.116000
     30 H5          -2.3980     6.4110   -22.3600 h1         1 IUT       0.042700
     31 H6          -3.5690     6.0440   -23.6580 h1         1 IUT       0.042700
     32 H7          -2.9410     7.7090   -23.4630 h1         1 IUT       0.042700
     33 H8          -6.9850     8.3490   -18.8340 hc         1 IUT       0.027700
     34 H9          -4.3290     7.4980   -17.5820 hc         1 IUT       0.038200
     35 H10         -4.7150     9.1180   -18.1520 hc         1 IUT       0.038200
     36 H11         -5.1170     8.8570   -15.6770 hc         1 IUT       0.019200
     37 H12         -6.5780     9.2950   -16.5440 hc         1 IUT       0.019200
     38 H13         -7.2620     7.6340   -15.0390 hc         1 IUT       0.024700
     39 H14         -7.9090     5.6160   -16.4790 hc         1 IUT       0.019200
     40 H15         -8.3850     7.2040   -17.0520 hc         1 IUT       0.019200
     41 H16         -7.5340     5.9180   -18.9570 hc         1 IUT       0.038200
     42 H17         -6.0380     5.5310   -18.1220 hc         1 IUT       0.038200
     43 H18         -4.1280     4.7230   -19.2270 ha         1 IUT       0.111500
     44 H19         -2.2190     4.0630   -17.7750 ha         1 IUT       0.109500
     45 H20         -0.2720     5.5960   -17.4980 ha         1 IUT       0.107000
     46 H21         -0.2390     7.7920   -18.6800 ha         1 IUT       0.109500
     47 H22         -2.1530     8.4570   -20.1260 ha         1 IUT       0.111500
@<TRIPOS>BOND
     1     1     2 ar  
     2     1     4 ar  
     3     1    26 1   
     4     2     3 ar  
     5     2    27 1   
     6     3     6 ar  
     7     3    28 1   
     8     4     5 ar  
     9     4    29 1   
    10     5     6 ar  
    11     5     9 1   
    12     6     7 1   
    13     7     8 1   
    14     7    11 1   
    15     8     9 2   
    16     8    10 1   
    17     9    12 1   
    18    10    18 ar  
    19    10    22 ar  
    20    11    30 1   
    21    11    31 1   
    22    11    32 1   
    23    12    13 1   
    24    12    17 1   
    25    12    33 1   
    26    13    14 1   
    27    13    34 1   
    28    13    35 1   
    29    14    15 1   
    30    14    36 1   
    31    14    37 1   
    32    15    16 1   
    33    15    23 1   
    34    15    38 1   
    35    16    17 1   
    36    16    39 1   
    37    16    40 1   
    38    17    41 1   
    39    17    42 1   
    40    18    19 ar  
    41    18    43 1   
    42    19    20 ar  
    43    19    44 1   
    44    20    21 ar  
    45    20    45 1   
    46    21    22 ar  
    47    21    46 1   
    48    22    47 1   
    49    23    24 1   
    50    23    25 1   
@<TRIPOS>SUBSTRUCTURE
     1 IUT         1 TEMP              0 ****  ****    0 ROOT
