@<TRIPOS>MOLECULE
IUT
   47    50     1     0     0
SMALL
bcc


@<TRIPOS>ATOM
      1 C1          -8.1050     8.5320   -22.9710 ca         1 IUT      -0.179000
      2 C2          -7.2280     8.2350   -24.0260 ca         1 IUT      -0.124000
      3 C3          -5.9640     7.7300   -23.7860 ca         1 IUT      -0.155000
      4 C4          -7.7340     8.3250   -21.6560 ca         1 IUT      -0.069000
      5 C5          -6.4630     7.8100   -21.3810 ca         1 IUT      -0.095800
      6 C6          -5.5960     7.5230   -22.4570 ca         1 IUT      -0.049200
      7 N7          -4.4310     7.0420   -21.9380 na         1 IUT      -0.061400
      8 C8          -4.5360     7.0140   -20.5610 cc         1 IUT       0.001700
      9 C9          -5.7690     7.4800   -20.1720 cd         1 IUT      -0.087400
     10 C10         -3.4110     6.5420   -19.7310 ca         1 IUT      -0.050800
     11 C11         -3.3090     6.6150   -22.7360 c3         1 IUT       0.038600
     12 C12         -6.3260     7.6410   -18.7870 c6         1 IUT       0.009500
     13 C13         -5.4310     8.4770   -17.8670 c6         1 IUT      -0.062400
     14 C14         -6.0450     8.6410   -16.4810 c6         1 IUT      -0.041400
     15 C15         -6.3410     7.2920   -15.8280 c6         1 IUT      -0.193700
     16 C16         -7.2730     6.4910   -16.7360 c6         1 IUT      -0.041400
     17 C17         -6.6790     6.3010   -18.1270 c6         1 IUT      -0.062400
     18 C18         -3.4190     5.2580   -19.1930 ca         1 IUT      -0.101500
     19 C19         -2.3860     4.8300   -18.3700 ca         1 IUT      -0.119000
     20 C20         -1.3250     5.6790   -18.0880 ca         1 IUT      -0.104000
     21 C21         -1.2960     6.9540   -18.6400 ca         1 IUT      -0.119000
     22 C22         -2.3310     7.3810   -19.4580 ca         1 IUT      -0.101500
     23 C23         -5.0620     6.5090   -15.4250 c          1 IUT       0.929600
     24 O24         -4.0390     7.1780   -15.1670 o          1 IUT      -0.845800
     25 O25         -5.1610     5.2660   -15.3460 o          1 IUT      -0.845800
     26 H1          -9.0870     8.9290   -23.1950 ha         1 IUT       0.116000
     27 H2          -7.5460     8.4080   -25.0470 ha         1 IUT       0.112000
     28 H3          -5.2900     7.5060   -24.6040 ha         1 IUT       0.120000
     29 H4          -8.4220     8.5600   -20.8520 ha         1 IUT       0.134000
     30 H5          -2.5400     6.1920   -22.0960 h1         1 IUT       0.042700
     31 H6          -3.6140     5.8510   -23.4520 h1         1 IUT       0.042700
     32 H7          -2.8760     7.4520   -23.2850 h1         1 IUT       0.042700
     33 H8          -7.2710     8.1930   -18.8870 hc         1 IUT       0.027700
     34 H9          -4.4530     8.0020   -17.7680 hc         1 IUT       0.038200
     35 H10         -5.2560     9.4560   -18.3230 hc         1 IUT       0.038200
     36 H11         -5.3830     9.2340   -15.8480 hc         1 IUT       0.019200
     37 H12         -6.9790     9.2080   -16.5670 hc         1 IUT       0.019200
     38 H13         -6.8750     7.4860   -14.8870 hc         1 IUT       0.024700
     39 H14         -7.4990     5.5220   -16.2910 hc         1 IUT       0.019200
     40 H15         -8.2290     7.0220   -16.8260 hc         1 IUT       0.019200
     41 H16         -7.3770     5.7550   -18.7680 hc         1 IUT       0.038200
     42 H17         -5.7810     5.6840   -18.0520 hc         1 IUT       0.038200
     43 H18         -4.2410     4.5900   -19.4170 ha         1 IUT       0.129500
     44 H19         -2.4110     3.8320   -17.9510 ha         1 IUT       0.127500
     45 H20         -0.5210     5.3490   -17.4420 ha         1 IUT       0.125000
     46 H21         -0.4690     7.6190   -18.4270 ha         1 IUT       0.127500
     47 H22         -2.3130     8.3810   -19.8730 ha         1 IUT       0.129500
@<TRIPOS>BOND
     1     1     2 ar  
     2     1     4 ar  
     3     1    26 1   
     4     2     3 ar  
     5     2    27 1   
     6     3     6 ar  
     7     3    28 1   
     8     4     5 ar  
     9     4    29 1   
    10     5     6 ar  
    11     5     9 1   
    12     6     7 1   
    13     7     8 1   
    14     7    11 1   
    15     8     9 2   
    16     8    10 1   
    17     9    12 1   
    18    10    18 ar  
    19    10    22 ar  
    20    11    30 1   
    21    11    31 1   
    22    11    32 1   
    23    12    13 1   
    24    12    17 1   
    25    12    33 1   
    26    13    14 1   
    27    13    34 1   
    28    13    35 1   
    29    14    15 1   
    30    14    36 1   
    31    14    37 1   
    32    15    16 1   
    33    15    23 1   
    34    15    38 1   
    35    16    17 1   
    36    16    39 1   
    37    16    40 1   
    38    17    41 1   
    39    17    42 1   
    40    18    19 ar  
    41    18    43 1   
    42    19    20 ar  
    43    19    44 1   
    44    20    21 ar  
    45    20    45 1   
    46    21    22 ar  
    47    21    46 1   
    48    22    47 1   
    49    23    24 1   
    50    23    25 1   
@<TRIPOS>SUBSTRUCTURE
     1 IUT         1 TEMP              0 ****  ****    0 ROOT
