@<TRIPOS>MOLECULE
IUU
   25    26     1     0     0
SMALL
bcc


@<TRIPOS>ATOM
      1 FAR         -4.8650    -1.2370    -0.0400 f          1 IUU      -0.124900
      2 CAL         -3.5410    -1.0840    -0.1500 ca         1 IUU       0.110900
      3 CAM         -2.9660     0.1390     0.1300 ca         1 IUU       0.009400
      4 CL          -3.9730     1.4520     0.6150 cl         1 IUU      -0.075400
      5 CAK         -2.7510    -2.1460    -0.5450 ca         1 IUU      -0.127000
      6 CAJ         -1.3850    -1.9760    -0.6540 ca         1 IUU      -0.167000
      7 CAI         -0.7870    -0.7410    -0.3720 ca         1 IUU       0.168600
      8 CAN         -1.5950     0.3260     0.0190 ca         1 IUU      -0.136000
      9 NAH          0.5950    -0.6760    -0.4870 nu         1 IUU      -0.719600
     10 CAG          1.4430     0.3950    -0.3530 ce         1 IUU       0.557200
     11 NAO          1.0090     1.5810    -0.1770 n2         1 IUU      -0.483200
     12 OAP          2.0030     2.5040    -0.0060 oh         1 IUU      -0.350500
     13 CAA          2.8650     0.0070    -0.3880 cc         1 IUU       0.118700
     14 CAB          3.5160    -1.0250     0.3670 cc         1 IUU       0.476900
     15 NAF          2.9480    -1.8910     1.2380 nv         1 IUU      -0.922500
     16 NAC          4.7690    -1.0320     0.0170 nd         1 IUU      -0.415300
     17 OAD          4.8960    -0.0610    -0.9220 os         1 IUU       0.117600
     18 NAE          3.7480     0.5610    -1.1510 nd         1 IUU      -0.256300
     19 H1          -3.2020    -3.1040    -0.7670 ha         1 IUU       0.155000
     20 H2          -0.7750    -2.8160    -0.9610 ha         1 IUU       0.139000
     21 H3          -1.1760     1.2960     0.2320 ha         1 IUU       0.179000
     22 H4           1.0240    -1.5180    -0.8370 hn         1 IUU       0.454800
     23 H5           1.5250     3.3260     0.1430 ho         1 IUU       0.436000
     24 H6           2.1450    -1.5580     1.7480 hn         1 IUU       0.426300
     25 H7           3.5830    -2.4250     1.8110 hn         1 IUU       0.426300
@<TRIPOS>BOND
     1     1     2 1   
     2     2     3 ar  
     3     2     5 ar  
     4     3     4 1   
     5     3     8 ar  
     6     5     6 ar  
     7     5    19 1   
     8     6     7 ar  
     9     6    20 1   
    10     7     8 ar  
    11     7     9 1   
    12     8    21 1   
    13     9    10 1   
    14     9    22 1   
    15    10    11 2   
    16    10    13 1   
    17    11    12 1   
    18    12    23 1   
    19    13    14 1   
    20    13    18 2   
    21    14    15 1   
    22    14    16 2   
    23    15    24 1   
    24    15    25 1   
    25    16    17 1   
    26    17    18 1   
@<TRIPOS>SUBSTRUCTURE
     1 IUU         1 TEMP              0 ****  ****    0 ROOT
