@<TRIPOS>MOLECULE
IUU
   25    26     1     0     0
SMALL
No Charge or Current Charge


@<TRIPOS>ATOM
      1 FAR         -4.9130    -1.1810     0.0550 f          1 IUU      -0.160000
      2 CAL         -3.5740    -1.0630    -0.0930 ca         1 IUU       0.146000
      3 CAM         -2.9000     0.0800     0.3770 ca         1 IUU       0.101000
      4 Cl          -3.7840     1.3800     1.1760 cl         1 IUU      -0.167000
      5 CAK         -2.8530    -2.0950    -0.7130 ca         1 IUU      -0.109000
      6 CAJ         -1.4590    -1.9800    -0.8680 ca         1 IUU      -0.149000
      7 CAI         -0.7790    -0.8340    -0.4170 ca         1 IUU       0.307000
      8 CAN         -1.5080     0.1900     0.2190 ca         1 IUU      -0.118000
      9 NAH          0.6080    -0.7800    -0.5870 nu         1 IUU      -0.913200
     10 CAG          1.5280     0.2890    -0.6010 ce         1 IUU       0.557200
     11 NAO          1.1360     1.5260    -0.7110 n2         1 IUU      -0.384700
     12 OAP          1.7900     2.4580     0.1290 oh         1 IUU      -0.488000
     13 CAA          2.9600    -0.0490    -0.5210 cc         1 IUU       0.118700
     14 CAB          3.5460    -0.9170     0.4190 cc         1 IUU       0.476900
     15 NAF          2.8990    -1.6100     1.3960 nv         1 IUU      -1.032900
     16 NAC          4.8340    -1.0250     0.2930 nd         1 IUU      -0.415300
     17 OAD          5.0890    -0.1470    -0.8120 os         1 IUU       0.117600
     18 NAE          3.8870     0.4660    -1.3060 nd         1 IUU      -0.256300
     19 H1          -3.3740    -2.9810    -1.0700 ha         1 IUU       0.137000
     20 H2          -0.9090    -2.7840    -1.3510 ha         1 IUU       0.121000
     21 H3          -1.0060     1.0670     0.6090 ha         1 IUU       0.161000
     22 H4           1.0380    -1.6800    -0.8000 hn         1 IUU       0.510000
     23 H5           1.3880     3.3360    -0.0860 ho         1 IUU       0.475000
     24 H6           1.9490    -1.3400     1.6400 hn         1 IUU       0.481500
     25 H7           3.4620    -2.0310     2.1310 hn         1 IUU       0.481500
@<TRIPOS>BOND
     1     1     2 1   
     2     2     3 ar  
     3     2     5 ar  
     4     3     4 1   
     5     3     8 ar  
     6     5     6 ar  
     7     5    19 1   
     8     6     7 ar  
     9     6    20 1   
    10     7     8 ar  
    11     7     9 1   
    12     8    21 1   
    13     9    10 1   
    14     9    22 1   
    15    10    11 2   
    16    10    13 1   
    17    11    12 1   
    18    12    23 1   
    19    13    14 1   
    20    13    18 2   
    21    14    15 1   
    22    14    16 2   
    23    15    24 1   
    24    15    25 1   
    25    16    17 1   
    26    17    18 1   
@<TRIPOS>SUBSTRUCTURE
     1 IUU         1 TEMP              0 ****  ****    0 ROOT
