@<TRIPOS>MOLECULE
IUV
   43    45     1     0     0
SMALL
No Charge or Current Charge


@<TRIPOS>ATOM
      1 C1           1.8640    -8.3720    13.9590 c6         1 IUV       0.149300
      2 C2           3.4150    -8.2970    13.7420 c6         1 IUV       0.163300
      3 C3           4.0540    -9.7250    13.7960 c6         1 IUV       0.163000
      4 C8           3.4980   -11.5980    16.8520 cc         1 IUV       0.184300
      5 C9           2.3700   -10.8190    16.9040 cd         1 IUV      -0.155000
      6 C10          3.9450   -12.6240    17.8600 c3         1 IUV      -0.069700
      7 C11          3.4160   -14.0430    17.5590 c3         1 IUV      -0.030100
      8 C12          1.8950   -14.1200    17.6140 ca         1 IUV      -0.028300
      9 C13          1.2400   -14.3480    18.8380 ca         1 IUV      -0.109000
     10 C14         -0.1630   -14.4040    18.8960 ca         1 IUV      -0.055000
     11 C15         -0.9360   -14.2340    17.7270 ca         1 IUV      -0.199300
     12 C16         -0.2750   -13.9940    16.5030 ca         1 IUV      -0.055000
     13 C22          0.0080    -9.4420    15.3590 c          1 IUV       0.723000
     14 O27         -0.7140    -8.9300    16.2020 o          1 IUV      -0.694000
     15 O26         -0.2430   -10.5320    14.8640 o          1 IUV      -0.694000
     16 C6           1.4830    -8.9780    15.3480 c6         1 IUV      -0.118700
     17 N5           2.4180   -10.0650    15.7490 na         1 IUV      -0.092500
     18 O24          1.3050    -7.0490    13.8100 oh         1 IUV      -0.783000
     19 O23          3.6700    -7.6330    12.4920 oh         1 IUV      -0.657000
     20 O25          5.5020    -9.6830    13.7480 oh         1 IUV      -0.713000
     21 C4           3.5710   -10.4040    15.0690 cd         1 IUV       0.331800
     22 N7           4.2470   -11.3350    15.7350 nc         1 IUV      -0.717000
     23 C17          1.1280   -13.9430    16.4480 ca         1 IUV      -0.109000
     24 C18         -2.4660   -14.2790    17.7950 c3         1 IUV       0.355300
     25 F19         -2.9110   -15.1390    18.7410 f          1 IUV      -0.118667
     26 F21         -2.9810   -13.0650    18.0920 f          1 IUV      -0.118667
     27 F20         -3.0250   -14.6710    16.6270 f          1 IUV      -0.118667
     28 H1           1.4600    -9.0370    13.1790 h1         1 IUV       0.046700
     29 H2           3.8380    -7.7030    14.5660 h1         1 IUV       0.042700
     30 H3           3.6720   -10.3040    12.9420 h1         1 IUV       0.053700
     31 H4           1.5770   -10.7600    17.6400 h4         1 IUV       0.174000
     32 H5           5.0400   -12.6550    17.8970 hc         1 IUV       0.036200
     33 H6           3.6130   -12.3240    18.8610 hc         1 IUV       0.036200
     34 H7           3.8520   -14.7440    18.2810 hc         1 IUV       0.044200
     35 H8           3.7780   -14.3580    16.5720 hc         1 IUV       0.044200
     36 H9           1.8200   -14.4770    19.7490 ha         1 IUV       0.115500
     37 H10         -0.6460   -14.5740    19.8560 ha         1 IUV       0.121000
     38 H11         -0.8440   -13.8380    15.5890 ha         1 IUV       0.121000
     39 H13          1.5750    -8.1860    16.1040 h1         1 IUV       0.062700
     40 H14          0.3190    -7.1350    13.7960 ho         1 IUV       0.579000
     41 H15          2.9540    -6.9560    12.4460 ho         1 IUV       0.457000
     42 H16          5.7830   -10.3910    14.3810 ho         1 IUV       0.520000
     43 H17          1.6200   -13.7510    15.4980 ha         1 IUV       0.115500
@<TRIPOS>BOND
     1     1     2 1   
     2     1    16 1   
     3     1    18 1   
     4     1    28 1   
     5     2     3 1   
     6     2    19 1   
     7     2    29 1   
     8     3    20 1   
     9     3    21 1   
    10     3    30 1   
    11     4     5 2   
    12     4     6 1   
    13     4    22 1   
    14     5    17 1   
    15     5    31 1   
    16     6     7 1   
    17     6    32 1   
    18     6    33 1   
    19     7     8 1   
    20     7    34 1   
    21     7    35 1   
    22     8     9 ar  
    23     8    23 ar  
    24     9    10 ar  
    25     9    36 1   
    26    10    11 ar  
    27    10    37 1   
    28    11    12 ar  
    29    11    24 1   
    30    12    23 ar  
    31    12    38 1   
    32    13    14 1   
    33    13    15 1   
    34    13    16 1   
    35    16    17 1   
    36    16    39 1   
    37    17    21 1   
    38    18    40 1   
    39    19    41 1   
    40    20    42 1   
    41    21    22 2   
    42    23    43 1   
    43    24    25 1   
    44    24    26 1   
    45    24    27 1   
@<TRIPOS>SUBSTRUCTURE
     1 IUV         1 TEMP              0 ****  ****    0 ROOT
