@<TRIPOS>MOLECULE
IUV
   43    45     1     0     0
SMALL
bcc


@<TRIPOS>ATOM
      1 C1           1.6270    -8.4800    14.2940 c6         1 IUV       0.126100
      2 C2           2.9530    -8.7990    13.6070 c6         1 IUV       0.140100
      3 C3           3.2570   -10.2710    13.8180 c6         1 IUV       0.139800
      4 C8           3.4640   -11.4800    17.1920 cc         1 IUV       0.249600
      5 C9           2.5980   -10.4430    17.3810 cd         1 IUV      -0.187600
      6 C10          3.9480   -12.4770    18.1880 c3         1 IUV      -0.069700
      7 C11          3.5800   -13.9160    17.7960 c3         1 IUV      -0.030100
      8 C12          2.1090   -14.0800    17.5470 ca         1 IUV      -0.028300
      9 C13          1.1900   -13.9150    18.5790 ca         1 IUV      -0.127000
     10 C14         -0.1740   -14.0120    18.3490 ca         1 IUV      -0.073000
     11 C15         -0.6410   -14.2820    17.0690 ca         1 IUV      -0.199300
     12 C16          0.2640   -14.4570    16.0280 ca         1 IUV      -0.073000
     13 C22          0.3230    -8.4690    16.4480 c          1 IUV       0.933600
     14 O27         -0.2620    -7.4230    16.0640 o          1 IUV      -0.799300
     15 O26         -0.1040    -9.3180    17.2310 o          1 IUV      -0.799300
     16 C6           1.7320    -8.6330    15.8230 c6         1 IUV      -0.148000
     17 N5           2.4050    -9.8770    16.1440 na         1 IUV      -0.113900
     18 O24          1.2600    -7.1690    13.9720 oh         1 IUV      -0.660800
     19 O23          2.8920    -8.5570    12.2280 oh         1 IUV      -0.594800
     20 O25          4.5290   -10.5860    13.3190 oh         1 IUV      -0.590800
     21 C4           3.1690   -10.5780    15.2810 cd         1 IUV       0.331800
     22 N7           3.8090   -11.5540    15.8680 nc         1 IUV      -0.717000
     23 C17          1.6230   -14.3550    16.2700 ca         1 IUV      -0.127000
     24 C18         -2.1030   -14.3540    16.7720 c3         1 IUV       0.719200
     25 F19         -2.8580   -14.3710    17.8750 f          1 IUV      -0.239967
     26 F21         -2.5130   -13.3040    16.0400 f          1 IUV      -0.239967
     27 F20         -2.4160   -15.4510    16.0650 f          1 IUV      -0.239967
     28 H1           0.8740    -9.1990    13.9260 h1         1 IUV       0.046700
     29 H2           3.7450    -8.2000    14.0870 h1         1 IUV       0.042700
     30 H3           2.4790   -10.8510    13.2940 h1         1 IUV       0.053700
     31 H4           2.1130   -10.0760    18.2680 h4         1 IUV       0.192000
     32 H5           5.0340   -12.4150    18.3000 hc         1 IUV       0.036200
     33 H6           3.5220   -12.2410    19.1660 hc         1 IUV       0.036200
     34 H7           3.9030   -14.5940    18.5900 hc         1 IUV       0.044200
     35 H8           4.1350   -14.1950    16.8990 hc         1 IUV       0.044200
     36 H9           1.5400   -13.7030    19.5820 ha         1 IUV       0.133500
     37 H10         -0.8580   -13.8730    19.1760 ha         1 IUV       0.139000
     38 H11         -0.0800   -14.6660    15.0230 ha         1 IUV       0.139000
     39 H13          2.3480    -7.8060    16.1980 h1         1 IUV       0.062700
     40 H14          0.5660    -6.9570    14.6400 ho         1 IUV       0.480000
     41 H15          2.6170    -7.6430    12.0980 ho         1 IUV       0.418000
     42 H16          4.8070   -11.4070    13.7430 ho         1 IUV       0.421000
     43 H17          2.3200   -14.4830    15.4510 ha         1 IUV       0.133500
@<TRIPOS>BOND
     1     1     2 1   
     2     1    16 1   
     3     1    18 1   
     4     1    28 1   
     5     2     3 1   
     6     2    19 1   
     7     2    29 1   
     8     3    20 1   
     9     3    21 1   
    10     3    30 1   
    11     4     5 2   
    12     4     6 1   
    13     4    22 1   
    14     5    17 1   
    15     5    31 1   
    16     6     7 1   
    17     6    32 1   
    18     6    33 1   
    19     7     8 1   
    20     7    34 1   
    21     7    35 1   
    22     8     9 ar  
    23     8    23 ar  
    24     9    10 ar  
    25     9    36 1   
    26    10    11 ar  
    27    10    37 1   
    28    11    12 ar  
    29    11    24 1   
    30    12    23 ar  
    31    12    38 1   
    32    13    14 1   
    33    13    15 1   
    34    13    16 1   
    35    16    17 1   
    36    16    39 1   
    37    17    21 1   
    38    18    40 1   
    39    19    41 1   
    40    20    42 1   
    41    21    22 2   
    42    23    43 1   
    43    24    25 1   
    44    24    26 1   
    45    24    27 1   
@<TRIPOS>SUBSTRUCTURE
     1 IUV         1 TEMP              0 ****  ****    0 ROOT
