@<TRIPOS>MOLECULE
IUW
   80    83     1     0     0
SMALL
abcg2


@<TRIPOS>ATOM
      1 C10         36.8100    -8.0310    -5.1070 c5         1 IUW      -0.071700
      2 C13         40.3330    -7.0840    -6.3520 c3         1 IUW      -0.031200
      3 C15         40.9140    -5.5390    -4.3470 c3         1 IUW      -0.077400
      4 C17         41.6730    -3.8110    -2.6110 c3         1 IUW      -0.066400
      5 C20         42.4670    -5.3760     0.0100 c3         1 IUW      -0.061400
      6 C21         43.1230    -5.4860     1.3870 c3         1 IUW      -0.198400
      7 C22         44.1670    -6.6130     1.4760 c          1 IUW       0.704000
      8 C26         39.7810   -10.1430    -6.2890 ca         1 IUW      -0.032800
      9 C28         41.1600   -12.1170    -5.9790 ca         1 IUW      -0.113000
     10 C01         37.3180   -11.3170    -3.5040 c2         1 IUW      -0.312000
     11 C02         37.6670   -10.0620    -3.7830 ce         1 IUW      -0.041400
     12 C03         38.2070    -9.1940    -2.6970 ca         1 IUW      -0.075800
     13 C04         37.3620    -8.7550    -1.6740 ca         1 IUW      -0.108500
     14 C05         37.8410    -7.9490    -0.6460 ca         1 IUW      -0.109500
     15 C06         39.1790    -7.5690    -0.6230 ca         1 IUW      -0.094000
     16 C07         40.0290    -8.0040    -1.6340 ca         1 IUW      -0.109500
     17 C08         39.5480    -8.8040    -2.6610 ca         1 IUW      -0.108500
     18 C09         37.5230    -9.4350    -5.1630 c5         1 IUW       0.038400
     19 C11         37.9110    -6.9850    -5.3400 c5         1 IUW      -0.039200
     20 C12         39.0940    -7.7650    -5.8500 c2         1 IUW      -0.080400
     21 C14         41.3480    -6.6810    -5.2640 c3         1 IUW      -0.070400
     22 C16         42.0550    -5.0240    -3.4670 c3         1 IUW      -0.077400
     23 C18         40.7330    -4.1090    -1.4270 c3         1 IUW      -0.073400
     24 C19         41.4400    -4.2500    -0.0740 c3         1 IUW      -0.080400
     25 C25         38.8850    -9.0850    -5.7770 ce         1 IUW      -0.081400
     26 C27         40.3380   -11.1230    -5.4590 ca         1 IUW      -0.102000
     27 C29         41.4390   -12.1590    -7.3410 ca         1 IUW      -0.113000
     28 C30         40.8840   -11.1980    -8.1820 ca         1 IUW      -0.113000
     29 C31         40.0630   -10.2060    -7.6600 ca         1 IUW      -0.102000
     30 C32         35.7070    -8.1200    -6.2010 c5         1 IUW       0.210500
     31 C38         36.1470    -9.2410    -7.1410 c5         1 IUW      -0.085400
     32 C39         36.6930   -10.2730    -6.1620 c5         1 IUW      -0.069400
     33 N33         35.4320    -6.8730    -6.9250 n7         1 IUW      -0.939300
     34 N36         34.7610    -5.1810    -5.0450 n8         1 IUW      -1.011100
     35 O23         45.0750    -6.6220     0.6020 o          1 IUW      -0.744000
     36 O24         44.0500    -7.4450     2.4160 o          1 IUW      -0.744000
     37 O35         33.0460    -6.6240    -6.0330 o          1 IUW      -0.566500
     38 O37         34.1110    -4.8710    -7.4360 o          1 IUW      -0.566500
     39 S34         34.2270    -5.8860    -6.4200 s6         1 IUW       1.288200
     40 H101        36.3340    -7.8710    -4.1430 hc         1 IUW       0.060700
     41 H132        40.8450    -7.7450    -7.0530 hc         1 IUW       0.044700
     42 H131        40.0480    -6.1870    -6.9120 hc         1 IUW       0.044700
     43 H152        40.5390    -4.7110    -4.9610 hc         1 IUW       0.032700
     44 H151        40.0820    -5.8610    -3.7180 hc         1 IUW       0.032700
     45 H171        42.5830    -3.3380    -2.2290 hc         1 IUW       0.032200
     46 H172        41.2060    -3.0710    -3.2700 hc         1 IUW       0.032200
     47 H202        41.9830    -6.3260    -0.2310 hc         1 IUW       0.036200
     48 H201        43.2470    -5.2290    -0.7380 hc         1 IUW       0.036200
     49 H212        43.6300    -4.5420     1.6170 hc         1 IUW       0.017700
     50 H211        42.3610    -5.6400     2.1550 hc         1 IUW       0.017700
     51 H281        41.5850   -12.8600    -5.3160 ha         1 IUW       0.111000
     52 H012        37.4450   -11.7180    -2.5060 ha         1 IUW       0.167500
     53 H011        36.9140   -11.9860    -4.2520 ha         1 IUW       0.167500
     54 H041        36.3190    -9.0450    -1.6920 ha         1 IUW       0.109500
     55 H051        37.1680    -7.6170     0.1350 ha         1 IUW       0.124000
     56 H061        39.5550    -6.9390     0.1730 ha         1 IUW       0.134000
     57 H071        41.0720    -7.7170    -1.6290 ha         1 IUW       0.124000
     58 H081        40.2260    -9.1280    -3.4360 ha         1 IUW       0.109500
     59 H112        38.1510    -6.4560    -4.4140 hc         1 IUW       0.060200
     60 H111        37.6050    -6.2240    -6.0620 hc         1 IUW       0.060200
     61 H141        41.5990    -7.5610    -4.6650 hc         1 IUW       0.044700
     62 H142        42.2700    -6.3830    -5.7740 hc         1 IUW       0.044700
     63 H162        42.4140    -5.8370    -2.8290 hc         1 IUW       0.047700
     64 H161        42.8940    -4.7500    -4.1150 hc         1 IUW       0.047700
     65 H182        39.9970    -3.3050    -1.3380 hc         1 IUW       0.024200
     66 H181        40.1600    -5.0180    -1.6310 hc         1 IUW       0.024200
     67 H191        41.9360    -3.3010     0.1660 hc         1 IUW       0.025700
     68 H192        40.6820    -4.4020     0.7030 hc         1 IUW       0.025700
     69 H271        40.1300   -11.1110    -4.4000 ha         1 IUW       0.117000
     70 H291        42.0780   -12.9340    -7.7450 ha         1 IUW       0.109000
     71 H301        41.0870   -11.2230    -9.2450 ha         1 IUW       0.111000
     72 H311        39.6210    -9.4690    -8.3190 ha         1 IUW       0.117000
     73 H321        34.7860    -8.4460    -5.7130 h1         1 IUW       0.055700
     74 H381        36.9340    -8.8840    -7.8100 hc         1 IUW       0.053700
     75 H382        35.3220    -9.6140    -7.7480 hc         1 IUW       0.053700
     76 H391        35.8600   -10.7560    -5.6490 hc         1 IUW       0.055200
     77 H392        37.2870   -11.0510    -6.6400 hc         1 IUW       0.055200
     78 H331        35.4390    -6.9440    -7.9350 hn         1 IUW       0.495000
     79 H362        34.6960    -5.7860    -4.2350 hn         1 IUW       0.482000
     80 H361        35.6780    -4.7590    -5.1390 hn         1 IUW       0.482000
@<TRIPOS>BOND
     1     1    18 1   
     2     1    19 1   
     3     1    30 1   
     4     1    40 1   
     5     2    20 1   
     6     2    21 1   
     7     2    41 1   
     8     2    42 1   
     9     3    21 1   
    10     3    22 1   
    11     3    43 1   
    12     3    44 1   
    13     4    22 1   
    14     4    23 1   
    15     4    45 1   
    16     4    46 1   
    17     5     6 1   
    18     5    24 1   
    19     5    47 1   
    20     5    48 1   
    21     6     7 1   
    22     6    49 1   
    23     6    50 1   
    24     7    35 1   
    25     7    36 1   
    26     8    25 1   
    27     8    26 ar  
    28     8    29 ar  
    29     9    26 ar  
    30     9    27 ar  
    31     9    51 1   
    32    10    11 2   
    33    10    52 1   
    34    10    53 1   
    35    11    12 1   
    36    11    18 1   
    37    12    13 ar  
    38    12    17 ar  
    39    13    14 ar  
    40    13    54 1   
    41    14    15 ar  
    42    14    55 1   
    43    15    16 ar  
    44    15    56 1   
    45    16    17 ar  
    46    16    57 1   
    47    17    58 1   
    48    18    25 1   
    49    18    32 1   
    50    19    20 1   
    51    19    59 1   
    52    19    60 1   
    53    20    25 2   
    54    21    61 1   
    55    21    62 1   
    56    22    63 1   
    57    22    64 1   
    58    23    24 1   
    59    23    65 1   
    60    23    66 1   
    61    24    67 1   
    62    24    68 1   
    63    26    69 1   
    64    27    28 ar  
    65    27    70 1   
    66    28    29 ar  
    67    28    71 1   
    68    29    72 1   
    69    30    31 1   
    70    30    33 1   
    71    30    73 1   
    72    31    32 1   
    73    31    74 1   
    74    31    75 1   
    75    32    76 1   
    76    32    77 1   
    77    33    39 1   
    78    33    78 1   
    79    34    39 1   
    80    34    79 1   
    81    34    80 1   
    82    37    39 2   
    83    38    39 2   
@<TRIPOS>SUBSTRUCTURE
     1 IUW         1 TEMP              0 ****  ****    0 ROOT
