@<TRIPOS>MOLECULE
IUW
   80    83     1     0     0
SMALL
No Charge or Current Charge


@<TRIPOS>ATOM
      1 C10         37.0110    -7.7130    -5.0550 c5         1 IUW      -0.071700
      2 C13         40.4640    -6.8420    -6.7910 c3         1 IUW      -0.031200
      3 C15         41.2680    -5.4440    -4.7640 c3         1 IUW      -0.077400
      4 C17         42.1950    -3.9210    -2.8650 c3         1 IUW      -0.066400
      5 C20         42.4210    -6.1990    -0.5650 c3         1 IUW      -0.061400
      6 C21         42.7760    -6.8360     0.8000 c3         1 IUW      -0.198400
      7 C22         43.5110    -8.1730     0.5940 c          1 IUW       0.704000
      8 C26         40.1890    -9.7520    -5.8450 ca         1 IUW      -0.032800
      9 C28         41.9720   -11.1110    -4.8810 ca         1 IUW      -0.113000
     10 C01         37.9980   -11.1640    -3.5950 c2         1 IUW      -0.312000
     11 C02         37.8070    -9.8300    -3.7290 ce         1 IUW      -0.041400
     12 C03         37.7230    -9.0500    -2.4610 ca         1 IUW      -0.075800
     13 C04         36.7110    -9.3390    -1.5240 ca         1 IUW      -0.108500
     14 C05         36.6230    -8.6140    -0.3230 ca         1 IUW      -0.109500
     15 C06         37.5500    -7.5940    -0.0500 ca         1 IUW      -0.094000
     16 C07         38.5630    -7.3020    -0.9780 ca         1 IUW      -0.109500
     17 C08         38.6510    -8.0270    -2.1800 ca         1 IUW      -0.108500
     18 C09         37.7580    -9.1070    -5.1010 c5         1 IUW       0.038400
     19 C11         37.9690    -6.7270    -5.8500 c5         1 IUW      -0.039200
     20 C12         39.2590    -7.4790    -6.1200 c2         1 IUW      -0.080400
     21 C14         41.6190    -6.5170    -5.8190 c3         1 IUW      -0.070400
     22 C16         42.4680    -5.0800    -3.8590 c3         1 IUW      -0.077400
     23 C18         41.1710    -4.2080    -1.7340 c3         1 IUW      -0.073400
     24 C19         41.7480    -4.8130    -0.4280 c3         1 IUW      -0.080400
     25 C25         39.1080    -8.7400    -5.6900 ce         1 IUW      -0.081400
     26 C27         40.9470   -10.1610    -4.7310 ca         1 IUW      -0.102000
     27 C29         42.2470   -11.6540    -6.1480 ca         1 IUW      -0.113000
     28 C30         41.4960   -11.2470    -7.2630 ca         1 IUW      -0.113000
     29 C31         40.4700   -10.2980    -7.1110 ca         1 IUW      -0.102000
     30 C32         35.6890    -8.0170    -5.8510 c5         1 IUW       0.210500
     31 C38         36.1980    -8.9400    -6.9880 c5         1 IUW      -0.085400
     32 C39         36.9720    -9.9880    -6.1450 c5         1 IUW      -0.069400
     33 N33         35.0860    -6.8070    -6.4650 n7         1 IUW      -0.939300
     34 N36         33.7040    -4.8240    -6.4550 n8         1 IUW      -1.011100
     35 O23         44.7280    -8.1520     0.4900 o          1 IUW      -0.744000
     36 O24         42.8450    -9.1930     0.5080 o          1 IUW      -0.744000
     37 O35         35.0930    -5.2320    -4.5010 o          1 IUW      -0.566500
     38 O37         33.0570    -6.7220    -4.9950 o          1 IUW      -0.566500
     39 S34         34.2020    -5.9280    -5.4170 s6         1 IUW       1.288200
     40 H101        36.7970    -7.3310    -4.0540 hc         1 IUW       0.060700
     41 H132        40.8460    -7.5110    -7.5710 hc         1 IUW       0.044700
     42 H131        40.1620    -5.9240    -7.3100 hc         1 IUW       0.044700
     43 H152        40.9130    -4.5400    -5.2750 hc         1 IUW       0.032700
     44 H151        40.4400    -5.8120    -4.1470 hc         1 IUW       0.032700
     45 H171        43.1440    -3.6040    -2.4150 hc         1 IUW       0.032200
     46 H172        41.8380    -3.0600    -3.4430 hc         1 IUW       0.032200
     47 H202        41.7610    -6.8760    -1.1220 hc         1 IUW       0.036200
     48 H201        43.3440    -6.0920    -1.1460 hc         1 IUW       0.036200
     49 H212        43.4310    -6.1150     1.3060 hc         1 IUW       0.017700
     50 H211        41.8190    -6.9990     1.3130 hc         1 IUW       0.017700
     51 H281        42.5540   -11.4230    -4.0170 ha         1 IUW       0.111000
     52 H012        38.0610   -11.6370    -2.6160 ha         1 IUW       0.167500
     53 H011        38.1190   -11.8200    -4.4560 ha         1 IUW       0.167500
     54 H041        35.9890   -10.1260    -1.7310 ha         1 IUW       0.109500
     55 H051        35.8380    -8.8420     0.3940 ha         1 IUW       0.124000
     56 H061        37.4840    -7.0320     0.8790 ha         1 IUW       0.134000
     57 H071        39.2800    -6.5140    -0.7640 ha         1 IUW       0.124000
     58 H081        39.4380    -7.7940    -2.8920 ha         1 IUW       0.109500
     59 H112        38.1700    -5.8310    -5.2520 hc         1 IUW       0.060200
     60 H111        37.5550    -6.3640    -6.7970 hc         1 IUW       0.060200
     61 H141        41.9370    -7.4360    -5.3130 hc         1 IUW       0.044700
     62 H142        42.4770    -6.1690    -6.4070 hc         1 IUW       0.044700
     63 H162        42.7980    -5.9770    -3.3240 hc         1 IUW       0.047700
     64 H161        43.3080    -4.7830    -4.5000 hc         1 IUW       0.047700
     65 H182        40.6990    -3.2550    -1.4650 hc         1 IUW       0.024200
     66 H181        40.3600    -4.8420    -2.1060 hc         1 IUW       0.024200
     67 H191        42.4710    -4.1080     0.0020 hc         1 IUW       0.025700
     68 H192        40.9280    -4.8910     0.2970 hc         1 IUW       0.025700
     69 H271        40.7410    -9.7410    -3.7510 ha         1 IUW       0.117000
     70 H291        43.0410   -12.3890    -6.2640 ha         1 IUW       0.109000
     71 H301        41.7080   -11.6660    -8.2450 ha         1 IUW       0.111000
     72 H311        39.8920    -9.9830    -7.9770 ha         1 IUW       0.117000
     73 H321        34.9680    -8.5620    -5.2220 h1         1 IUW       0.055700
     74 H381        36.8470    -8.4280    -7.7070 hc         1 IUW       0.053700
     75 H382        35.3780    -9.3950    -7.5540 hc         1 IUW       0.053700
     76 H391        36.2580   -10.6570    -5.6500 hc         1 IUW       0.055200
     77 H392        37.6220   -10.6220    -6.7570 hc         1 IUW       0.055200
     78 H331        34.3220    -7.0920    -7.0750 hn         1 IUW       0.495000
     79 H362        33.7640    -3.9960    -5.8720 hn         1 IUW       0.482000
     80 H361        34.5410    -4.7760    -7.0290 hn         1 IUW       0.482000
@<TRIPOS>BOND
     1     1    18 1   
     2     1    19 1   
     3     1    30 1   
     4     1    40 1   
     5     2    20 1   
     6     2    21 1   
     7     2    41 1   
     8     2    42 1   
     9     3    21 1   
    10     3    22 1   
    11     3    43 1   
    12     3    44 1   
    13     4    22 1   
    14     4    23 1   
    15     4    45 1   
    16     4    46 1   
    17     5     6 1   
    18     5    24 1   
    19     5    47 1   
    20     5    48 1   
    21     6     7 1   
    22     6    49 1   
    23     6    50 1   
    24     7    35 1   
    25     7    36 1   
    26     8    25 1   
    27     8    26 ar  
    28     8    29 ar  
    29     9    26 ar  
    30     9    27 ar  
    31     9    51 1   
    32    10    11 2   
    33    10    52 1   
    34    10    53 1   
    35    11    12 1   
    36    11    18 1   
    37    12    13 ar  
    38    12    17 ar  
    39    13    14 ar  
    40    13    54 1   
    41    14    15 ar  
    42    14    55 1   
    43    15    16 ar  
    44    15    56 1   
    45    16    17 ar  
    46    16    57 1   
    47    17    58 1   
    48    18    25 1   
    49    18    32 1   
    50    19    20 1   
    51    19    59 1   
    52    19    60 1   
    53    20    25 2   
    54    21    61 1   
    55    21    62 1   
    56    22    63 1   
    57    22    64 1   
    58    23    24 1   
    59    23    65 1   
    60    23    66 1   
    61    24    67 1   
    62    24    68 1   
    63    26    69 1   
    64    27    28 ar  
    65    27    70 1   
    66    28    29 ar  
    67    28    71 1   
    68    29    72 1   
    69    30    31 1   
    70    30    33 1   
    71    30    73 1   
    72    31    32 1   
    73    31    74 1   
    74    31    75 1   
    75    32    76 1   
    76    32    77 1   
    77    33    39 1   
    78    33    78 1   
    79    34    39 1   
    80    34    79 1   
    81    34    80 1   
    82    37    39 2   
    83    38    39 2   
@<TRIPOS>SUBSTRUCTURE
     1 IUW         1 TEMP              0 ****  ****    0 ROOT
