@<TRIPOS>MOLECULE
IUX
   35    37     1     0     0
SMALL
No Charge or Current Charge


@<TRIPOS>ATOM
      1 C10          5.1190     9.0820    -5.5090 cc         1 IUX       0.236500
      2 C13          2.8690    11.6540    -4.0880 cc         1 IUX      -0.224000
      3 C15          4.8440    12.6720    -3.4780 cd         1 IUX      -0.226100
      4 C17          6.2860    10.9040    -4.4570 cd         1 IUX       0.520400
      5 C02          7.8940     6.2310    -8.2260 cx         1 IUX      -0.110000
      6 C03          8.8960     5.0900    -8.4380 c3         1 IUX      -0.060600
      7 C04          6.4600     6.0480    -8.6700 cx         1 IUX      -0.105400
      8 C05          6.7790     6.1050    -7.1900 cx         1 IUX       0.068400
      9 C06          6.6430     4.8420    -6.3400 c3         1 IUX      -0.071100
     10 N07          6.4280     7.3150    -6.4920 ns         1 IUX      -0.464900
     11 C08          5.1440     7.7710    -6.2540 c          1 IUX       0.518600
     12 O09          4.1530     7.1480    -6.6240 o          1 IUX      -0.606100
     13 C11          3.8710     9.6280    -5.2210 cd         1 IUX      -0.035000
     14 C12          3.8880    10.8580    -4.5230 cd         1 IUX      -0.130000
     15 C14          3.4660    12.7780    -3.4410 cc         1 IUX      -0.204000
     16 N16          5.0430    11.4700    -4.1570 na         1 IUX      -0.063400
     17 N18          6.3250     9.7250    -5.1250 nc         1 IUX      -0.696000
     18 H1           1.7990    11.4790    -4.2050 ha         1 IUX       0.212000
     19 H2           5.6400    13.3120    -3.1030 h4         1 IUX       0.223000
     20 H3           7.1790    11.4310    -4.1440 h5         1 IUX       0.051100
     21 H4           9.3430     7.7750    -7.7090 hc         1 IUX       0.037700
     22 H5           9.0670     7.6040    -9.4510 hc         1 IUX       0.037700
     23 H6           7.8660     8.4160    -8.4490 hc         1 IUX       0.037700
     24 H7           9.6460     5.0770    -7.6380 hc         1 IUX       0.037700
     25 H8           8.4110     4.1080    -8.4590 hc         1 IUX       0.037700
     26 H9           9.4250     5.2020    -9.3920 hc         1 IUX       0.037700
     27 H10          5.9480     6.8990    -9.1120 hc         1 IUX       0.081200
     28 H11          6.1730     5.0870    -9.0900 hc         1 IUX       0.081200
     29 H12          7.4180     4.8110    -5.5650 hc         1 IUX       0.044700
     30 H13          5.6690     4.8110    -5.8390 hc         1 IUX       0.044700
     31 H14          6.7250     3.9270    -6.9370 hc         1 IUX       0.044700
     32 H15          7.1620     7.9180    -6.1360 hn         1 IUX       0.341500
     33 H16          2.9450     9.1440    -5.5100 ha         1 IUX       0.159000
     34 H17          2.9020    13.5940    -2.9880 ha         1 IUX       0.206000
     35 C01          8.5780     7.5810    -8.4700 c3         1 IUX      -0.060600
@<TRIPOS>BOND
     1     1    11 1   
     2     1    13 2   
     3     1    17 1   
     4     2    14 2   
     5     2    15 1   
     6     2    18 1   
     7     3    15 2   
     8     3    16 1   
     9     3    19 1   
    10     4    16 1   
    11     4    17 2   
    12     4    20 1   
    13     5     6 1   
    14     5     7 1   
    15     5     8 1   
    16     5    35 1   
    17     6    24 1   
    18     6    25 1   
    19     6    26 1   
    20     7     8 1   
    21     7    27 1   
    22     7    28 1   
    23     8     9 1   
    24     8    10 1   
    25     9    29 1   
    26     9    30 1   
    27     9    31 1   
    28    10    11 1   
    29    10    32 1   
    30    11    12 2   
    31    13    14 1   
    32    13    33 1   
    33    14    16 1   
    34    15    34 1   
    35    21    35 1   
    36    22    35 1   
    37    23    35 1   
@<TRIPOS>SUBSTRUCTURE
     1 IUX         1 TEMP              0 ****  ****    0 ROOT
