@<TRIPOS>MOLECULE
IUX
   35    37     1     0     0
SMALL
bcc


@<TRIPOS>ATOM
      1 C10          5.1170     9.0980    -5.5560 cc         1 IUX       0.301800
      2 C13          2.8370    11.6250    -4.0150 cc         1 IUX      -0.174000
      3 C15          4.8310    12.5700    -3.5090 cd         1 IUX      -0.176100
      4 C17          6.2340    10.8300    -4.5620 cd         1 IUX       0.520400
      5 C02          7.9060     6.2410    -8.2290 cx         1 IUX      -0.110000
      6 C03          8.8490     5.0680    -8.3680 c3         1 IUX      -0.060600
      7 C04          6.4810     6.0870    -8.6740 cx         1 IUX      -0.105400
      8 C05          6.7950     6.1730    -7.2060 cx         1 IUX       0.068400
      9 C06          6.6210     4.9570    -6.3250 c3         1 IUX      -0.071100
     10 N07          6.4770     7.4010    -6.5400 ns         1 IUX      -0.531900
     11 C08          5.2210     7.8140    -6.3110 c          1 IUX       0.585600
     12 O09          4.2190     7.2130    -6.6770 o          1 IUX      -0.606100
     13 C11          3.8960     9.6040    -5.2330 cd         1 IUX      -0.118300
     14 C12          3.8350    10.8160    -4.5190 cd         1 IUX      -0.079300
     15 C14          3.4700    12.7170    -3.3870 cc         1 IUX      -0.154000
     16 N16          5.0580    11.4150    -4.1970 na         1 IUX      -0.114100
     17 N18          6.2860     9.7250    -5.2100 nc         1 IUX      -0.696000
     18 H1           1.7780    11.4410    -4.0960 ha         1 IUX       0.162000
     19 H2           5.6450    13.1870    -3.1670 h4         1 IUX       0.173000
     20 H3           7.1390    11.3510    -4.2740 h5         1 IUX       0.051100
     21 H4           9.3720     7.7490    -7.7330 hc         1 IUX       0.037700
     22 H5           9.0730     7.5570    -9.4570 hc         1 IUX       0.037700
     23 H6           7.9050     8.4100    -8.4580 hc         1 IUX       0.037700
     24 H7           9.6270     5.0940    -7.6010 hc         1 IUX       0.037700
     25 H8           8.3460     4.1050    -8.3020 hc         1 IUX       0.037700
     26 H9           9.3470     5.1040    -9.3390 hc         1 IUX       0.037700
     27 H10          5.9980     6.9370    -9.1410 hc         1 IUX       0.081200
     28 H11          6.1570     5.1260    -9.0560 hc         1 IUX       0.081200
     29 H12          7.3220     4.9750    -5.4880 hc         1 IUX       0.044700
     30 H13          5.6110     4.9270    -5.9160 hc         1 IUX       0.044700
     31 H14          6.7750     4.0280    -6.8700 hc         1 IUX       0.044700
     32 H15          7.2220     7.9510    -6.1370 hn         1 IUX       0.341500
     33 H16          2.9820     9.0980    -5.5100 ha         1 IUX       0.177000
     34 H17          2.9790    13.5390    -2.8900 ha         1 IUX       0.156000
     35 C01          8.5930     7.5660    -8.4770 c3         1 IUX      -0.060600
@<TRIPOS>BOND
     1     1    11 1   
     2     1    13 2   
     3     1    17 1   
     4     2    14 2   
     5     2    15 1   
     6     2    18 1   
     7     3    15 2   
     8     3    16 1   
     9     3    19 1   
    10     4    16 1   
    11     4    17 2   
    12     4    20 1   
    13     5     6 1   
    14     5     7 1   
    15     5     8 1   
    16     5    35 1   
    17     6    24 1   
    18     6    25 1   
    19     6    26 1   
    20     7     8 1   
    21     7    27 1   
    22     7    28 1   
    23     8     9 1   
    24     8    10 1   
    25     9    29 1   
    26     9    30 1   
    27     9    31 1   
    28    10    11 1   
    29    10    32 1   
    30    11    12 2   
    31    13    14 1   
    32    13    33 1   
    33    14    16 1   
    34    15    34 1   
    35    21    35 1   
    36    22    35 1   
    37    23    35 1   
@<TRIPOS>SUBSTRUCTURE
     1 IUX         1 TEMP              0 ****  ****    0 ROOT
