@<TRIPOS>MOLECULE
IUY
   53    56     1     0     0
SMALL
No Charge or Current Charge


@<TRIPOS>ATOM
      1 C1          -1.1130     1.6150    -0.6090 ce         1 IUY      -0.267400
      2 C2          -1.8680     1.1800     0.6710 c6         1 IUY       0.208800
      3 C3           0.2560     1.7170    -0.5900 c2         1 IUY       0.115700
      4 N4           0.9920     1.4070     0.5780 nh         1 IUY      -0.105700
      5 C5           1.0840     2.2100    -1.7800 c3         1 IUY      -0.074900
      6 C6          -2.4610    -0.2280     0.5020 ca         1 IUY      -0.125300
      7 C7          -3.8540    -0.4260     0.5760 ca         1 IUY      -0.087000
      8 C8          -4.3980    -1.7130     0.4180 ca         1 IUY      -0.070500
      9 C9          -3.5540    -2.8150     0.1860 ca         1 IUY       0.029000
     10 C10         -2.1610    -2.6210     0.1140 ca         1 IUY      -0.070500
     11 C11         -1.6180    -1.3350     0.2710 ca         1 IUY      -0.087000
     12 C12         -1.9790     1.9580    -1.7960 c          1 IUY       0.626300
     13 O13         -1.5640     2.2450    -2.9090 o          1 IUY      -0.464000
     14 O14         -3.3150     1.9000    -1.4940 os         1 IUY      -0.460100
     15 C15         -4.2640     2.1680    -2.5390 c3         1 IUY       0.170600
     16 C16         -5.6660     1.9910    -1.9360 c3         1 IUY      -0.101100
     17 C17         -4.1100    -4.1300     0.0240 cg         1 IUY       0.294000
     18 N18         -4.5590    -5.2010    -0.0990 n1         1 IUY      -0.394000
     19 N19         -0.9800     1.2030     1.8420 na         1 IUY       0.016000
     20 C20          0.3430     1.3840     1.7540 cz         1 IUY       0.080000
     21 N21          0.8710     1.0000     2.9480 na         1 IUY      -0.120000
     22 C22         -0.1760     0.7350     3.8380 cc         1 IUY      -0.147000
     23 C23         -1.3500     0.8560     3.1220 cd         1 IUY      -0.134000
     24 C24          2.3620     1.0490     0.5240 ca         1 IUY      -0.075200
     25 C25          3.3410     1.8730     1.1110 ca         1 IUY      -0.083000
     26 C26          4.6970     1.5160     1.0430 ca         1 IUY      -0.097000
     27 C27          5.0850     0.3330     0.3910 ca         1 IUY      -0.023000
     28 C28          4.1150    -0.5070    -0.1980 ca         1 IUY      -0.184300
     29 C29          2.7550    -0.1330    -0.1330 ca         1 IUY      -0.047000
     30 C30          4.5270    -1.7920    -0.9250 c3         1 IUY       0.363300
     31 F31          5.7020    -2.2890    -0.4740 f          1 IUY      -0.099333
     32 F32          3.6100    -2.7770    -0.7780 f          1 IUY      -0.099333
     33 F33          4.6700    -1.5800    -2.2520 f          1 IUY      -0.099333
     34 H2          -2.6790     1.8950     0.8760 h1         1 IUY       0.113700
     35 H5           0.6820     3.1490    -2.1760 hc         1 IUY       0.088367
     36 H5A          2.1290     2.4300    -1.5380 hc         1 IUY       0.088367
     37 H5B          1.0840     1.4710    -2.5890 hc         1 IUY       0.088367
     38 H7          -4.5190     0.4160     0.7530 ha         1 IUY       0.120000
     39 H8          -5.4760    -1.8510     0.4750 ha         1 IUY       0.143000
     40 H10         -1.4990    -3.4660    -0.0650 ha         1 IUY       0.143000
     41 H11         -0.5400    -1.2000     0.2120 ha         1 IUY       0.120000
     42 H15         -4.1520     3.1930    -2.9180 h1         1 IUY       0.060700
     43 H15A        -4.1360     1.4700    -3.3770 h1         1 IUY       0.060700
     44 H16         -5.8040     0.9650    -1.5770 hc         1 IUY       0.052700
     45 H16A        -5.8160     2.6810    -1.0970 hc         1 IUY       0.052700
     46 H16B        -6.4330     2.1970    -2.6920 hc         1 IUY       0.052700
     47 HN21         1.8650     0.9310     3.1430 hn         1 IUY       0.408000
     48 H22         -0.0070     0.4500     4.8720 h4         1 IUY       0.207000
     49 H23         -2.3810     0.6830     3.4170 h4         1 IUY       0.208000
     50 H25          3.0520     2.7990     1.6070 ha         1 IUY       0.141000
     51 H26          5.4510     2.1590     1.4920 ha         1 IUY       0.151000
     52 H27          6.1430     0.0790     0.3440 ha         1 IUY       0.160000
     53 H29          1.9950    -0.7620    -0.5930 ha         1 IUY       0.149000
@<TRIPOS>BOND
     1     1     2 1   
     2     1     3 2   
     3     1    12 1   
     4     2     6 1   
     5     2    19 1   
     6     2    34 1   
     7     3     4 1   
     8     3     5 1   
     9     4    20 2   
    10     4    24 1   
    11     5    35 1   
    12     5    36 1   
    13     5    37 1   
    14     6     7 ar  
    15     6    11 ar  
    16     7     8 ar  
    17     7    38 1   
    18     8     9 ar  
    19     8    39 1   
    20     9    10 ar  
    21     9    17 1   
    22    10    11 ar  
    23    10    40 1   
    24    11    41 1   
    25    12    13 2   
    26    12    14 1   
    27    14    15 1   
    28    15    16 1   
    29    15    42 1   
    30    15    43 1   
    31    16    44 1   
    32    16    45 1   
    33    16    46 1   
    34    17    18 3   
    35    19    20 1   
    36    19    23 1   
    37    20    21 1   
    38    21    22 1   
    39    21    47 1   
    40    22    23 2   
    41    22    48 1   
    42    23    49 1   
    43    24    25 ar  
    44    24    29 ar  
    45    25    26 ar  
    46    25    50 1   
    47    26    27 ar  
    48    26    51 1   
    49    27    28 ar  
    50    27    52 1   
    51    28    29 ar  
    52    28    30 1   
    53    29    53 1   
    54    30    31 1   
    55    30    32 1   
    56    30    33 1   
@<TRIPOS>SUBSTRUCTURE
     1 IUY         1 TEMP              0 ****  ****    0 ROOT
