@<TRIPOS>MOLECULE
IUY
   53    56     1     0     0
SMALL
bcc


@<TRIPOS>ATOM
      1 C1          -1.1030     1.4780    -0.6130 ce         1 IUY      -0.267400
      2 C2          -1.8660     1.0360     0.6190 c6         1 IUY       0.179500
      3 C3           0.2480     1.4880    -0.6960 c2         1 IUY       0.115700
      4 N4           1.0120     1.1170     0.4160 nh         1 IUY      -0.105700
      5 C5           1.0340     1.8760    -1.9080 c3         1 IUY      -0.074900
      6 C6          -2.6050    -0.2740     0.4160 ca         1 IUY      -0.125300
      7 C7          -3.9480    -0.3730     0.7550 ca         1 IUY      -0.105000
      8 C8          -4.6250    -1.5690     0.5970 ca         1 IUY      -0.088500
      9 C9          -3.9460    -2.6770     0.0940 ca         1 IUY       0.029000
     10 C10         -2.5960    -2.5880    -0.2460 ca         1 IUY      -0.088500
     11 C11         -1.9340    -1.3850    -0.0850 ca         1 IUY      -0.105000
     12 C12         -1.9440     1.8660    -1.7610 c          1 IUY       0.675300
     13 O13         -1.5630     2.1030    -2.8830 o          1 IUY      -0.513000
     14 O14         -3.2200     1.9130    -1.4040 os         1 IUY      -0.436900
     15 C15         -4.2020     2.2330    -2.4010 c3         1 IUY       0.147400
     16 C16         -5.5620     2.1240    -1.7540 c3         1 IUY      -0.101100
     17 C17         -4.6360    -3.9160    -0.0730 cg         1 IUY       0.204800
     18 N18         -5.1900    -4.9170    -0.2020 n1         1 IUY      -0.304800
     19 N19         -0.9300     0.8890     1.7250 na         1 IUY      -0.056100
     20 C20          0.3850     0.8820     1.5890 cz         1 IUY       0.181400
     21 N21          0.9290     0.6330     2.7730 na         1 IUY      -0.171100
     22 C22         -0.0790     0.4750     3.7010 cc         1 IUY      -0.114300
     23 C23         -1.2450     0.6330     3.0480 cd         1 IUY      -0.101300
     24 C24          2.4380     1.0060     0.4100 ca         1 IUY      -0.075200
     25 C25          3.2120     2.0720     0.8480 ca         1 IUY      -0.101000
     26 C26          4.5900     1.9420     0.8630 ca         1 IUY      -0.115000
     27 C27          5.1870     0.7590     0.4460 ca         1 IUY      -0.041000
     28 C28          4.4000    -0.3000     0.0170 ca         1 IUY      -0.184300
     29 C29          3.0150    -0.1830     0.0010 ca         1 IUY      -0.065000
     30 C30          5.0090    -1.5840    -0.4600 c3         1 IUY       0.727200
     31 F31          6.3190    -1.6510    -0.2170 f          1 IUY      -0.220633
     32 F32          4.4400    -2.6430     0.1290 f          1 IUY      -0.220633
     33 F33          4.8420    -1.7410    -1.7800 f          1 IUY      -0.220633
     34 H2          -2.5800     1.8060     0.9160 h1         1 IUY       0.113700
     35 H5           0.6710     2.8120    -2.3220 hc         1 IUY       0.088367
     36 H5A          2.0900     1.9980    -1.6880 hc         1 IUY       0.088367
     37 H5B          0.9400     1.1160    -2.6820 hc         1 IUY       0.088367
     38 H7          -4.4730     0.4900     1.1450 ha         1 IUY       0.138000
     39 H8          -5.6720    -1.6430     0.8580 ha         1 IUY       0.161000
     40 H10         -2.0740    -3.4510    -0.6350 ha         1 IUY       0.161000
     41 H11         -0.8880    -1.3230    -0.3610 ha         1 IUY       0.138000
     42 H15         -4.0240     3.2430    -2.7750 h1         1 IUY       0.060700
     43 H15A        -4.1130     1.5410    -3.2400 h1         1 IUY       0.060700
     44 H16         -5.7600     1.1090    -1.4090 hc         1 IUY       0.052700
     45 H16A        -5.6630     2.8060    -0.9100 hc         1 IUY       0.052700
     46 H16B        -6.3250     2.3830    -2.4880 hc         1 IUY       0.052700
     47 HN21         1.9190     0.5750     2.9710 hn         1 IUY       0.357700
     48 H22          0.1310     0.2690     4.7350 h4         1 IUY       0.225000
     49 H23         -2.2620     0.5860     3.3950 h4         1 IUY       0.226000
     50 H25          2.7410     2.9940     1.1630 ha         1 IUY       0.159000
     51 H26          5.2050     2.7650     1.1980 ha         1 IUY       0.169000
     52 H27          6.2650     0.6810     0.4630 ha         1 IUY       0.178000
     53 H29          2.3840    -0.9980    -0.3290 ha         1 IUY       0.167000
@<TRIPOS>BOND
     1     1     2 1   
     2     1     3 2   
     3     1    12 1   
     4     2     6 1   
     5     2    19 1   
     6     2    34 1   
     7     3     4 1   
     8     3     5 1   
     9     4    20 2   
    10     4    24 1   
    11     5    35 1   
    12     5    36 1   
    13     5    37 1   
    14     6     7 ar  
    15     6    11 ar  
    16     7     8 ar  
    17     7    38 1   
    18     8     9 ar  
    19     8    39 1   
    20     9    10 ar  
    21     9    17 1   
    22    10    11 ar  
    23    10    40 1   
    24    11    41 1   
    25    12    13 2   
    26    12    14 1   
    27    14    15 1   
    28    15    16 1   
    29    15    42 1   
    30    15    43 1   
    31    16    44 1   
    32    16    45 1   
    33    16    46 1   
    34    17    18 3   
    35    19    20 1   
    36    19    23 1   
    37    20    21 1   
    38    21    22 1   
    39    21    47 1   
    40    22    23 2   
    41    22    48 1   
    42    23    49 1   
    43    24    25 ar  
    44    24    29 ar  
    45    25    26 ar  
    46    25    50 1   
    47    26    27 ar  
    48    26    51 1   
    49    27    28 ar  
    50    27    52 1   
    51    28    29 ar  
    52    28    30 1   
    53    29    53 1   
    54    30    31 1   
    55    30    32 1   
    56    30    33 1   
@<TRIPOS>SUBSTRUCTURE
     1 IUY         1 TEMP              0 ****  ****    0 ROOT
