@<TRIPOS>MOLECULE
IUZ
   37    39     1     0     0
SMALL
No Charge or Current Charge


@<TRIPOS>ATOM
      1 C10        -24.1070    32.9210   -23.4060 c6         1 IUZ      -0.071400
      2 C13        -25.5480    32.1320   -25.8990 c6         1 IUZ      -0.072400
      3 C15        -23.4240    28.1480   -23.8030 ca         1 IUZ       0.131500
      4 C17        -25.0310    26.5460   -23.5640 ca         1 IUZ       0.283000
      5 C01        -22.7400    23.6040   -25.6730 c3         1 IUZ       0.223100
      6 C03        -23.1250    25.9490   -24.6880 ca         1 IUZ       0.455900
      7 C04        -22.6340    27.2570   -24.4860 ca         1 IUZ      -0.102600
      8 C06        -21.4880    29.0860   -24.4360 cc         1 IUZ       0.402700
      9 C08        -23.1810    30.5470   -23.1470 c3         1 IUZ       0.082600
     10 C09        -23.7500    31.6000   -24.1430 c6         1 IUZ      -0.081700
     11 C11        -24.6680    33.9850   -24.3820 c6         1 IUZ      -0.072400
     12 C12        -25.8940    33.4440   -25.1560 c6         1 IUZ      -0.076400
     13 C14        -24.9850    31.0660   -24.9260 c6         1 IUZ      -0.071400
     14 N02        -22.3730    25.0000   -25.3720 nu         1 IUZ      -0.910100
     15 N05        -21.4150    27.8200   -24.8920 nd         1 IUZ      -0.552100
     16 N07        -22.6970    29.3040   -23.7730 na         1 IUZ      -0.276300
     17 N16        -24.6390    27.8190   -23.3260 nb         1 IUZ      -0.206000
     18 N19        -24.3360    25.5890   -24.2220 nb         1 IUZ      -0.283000
     19 H101       -24.8480    32.7210   -22.6180 hc         1 IUZ       0.045700
     20 H102       -23.2180    33.3220   -22.9010 hc         1 IUZ       0.045700
     21 H131       -26.4430    31.7410   -26.4020 hc         1 IUZ       0.040200
     22 H132       -24.8110    32.3370   -26.6880 hc         1 IUZ       0.040200
     23 H012       -21.9350    23.1050   -26.2290 h1         1 IUZ       0.047700
     24 H013       -22.9170    23.0430   -24.7450 h1         1 IUZ       0.047700
     25 H011       -23.6540    23.5680   -26.2810 h1         1 IUZ       0.047700
     26 H061       -20.7360    29.8590   -24.5500 h5         1 IUZ       0.068800
     27 H081       -23.9550    30.3020   -22.4080 h1         1 IUZ       0.071200
     28 H082       -22.3430    30.9990   -22.6020 h1         1 IUZ       0.071200
     29 H091       -22.9460    31.8130   -24.8620 hc         1 IUZ       0.047700
     30 H111       -24.9470    34.8900   -23.8260 hc         1 IUZ       0.040200
     31 H112       -23.8840    34.2850   -25.0920 hc         1 IUZ       0.040200
     32 H122       -26.7240    33.2660   -24.4570 hc         1 IUZ       0.041200
     33 H121       -26.2450    34.1980   -25.8730 hc         1 IUZ       0.041200
     34 H142       -24.7140    30.1680   -25.4990 hc         1 IUZ       0.045700
     35 H141       -25.7710    30.7590   -24.2210 hc         1 IUZ       0.045700
     36 H021       -21.4670    25.3460   -25.6970 hn         1 IUZ       0.517000
     37 Cl18       -26.6130    26.0860   -22.9560 cl         1 IUZ      -0.149000
@<TRIPOS>BOND
     1     1    10 1   
     2     1    11 1   
     3     1    19 1   
     4     1    20 1   
     5     2    12 1   
     6     2    13 1   
     7     2    21 1   
     8     2    22 1   
     9     3     7 ar  
    10     3    16 1   
    11     3    17 ar  
    12     4    17 ar  
    13     4    18 ar  
    14     4    37 1   
    15     5    14 1   
    16     5    23 1   
    17     5    24 1   
    18     5    25 1   
    19     6     7 ar  
    20     6    14 1   
    21     6    18 ar  
    22     7    15 1   
    23     8    15 2   
    24     8    16 1   
    25     8    26 1   
    26     9    10 1   
    27     9    16 1   
    28     9    27 1   
    29     9    28 1   
    30    10    13 1   
    31    10    29 1   
    32    11    12 1   
    33    11    30 1   
    34    11    31 1   
    35    12    32 1   
    36    12    33 1   
    37    13    34 1   
    38    13    35 1   
    39    14    36 1   
@<TRIPOS>SUBSTRUCTURE
     1 IUZ         1 TEMP              0 ****  ****    0 ROOT
