@<TRIPOS>MOLECULE
IUZ
   37    39     1     0     0
SMALL
abcg2


@<TRIPOS>ATOM
      1 C10        -24.1430    32.8740   -23.4040 c6         1 IUZ      -0.071400
      2 C13        -25.4560    32.0670   -25.9190 c6         1 IUZ      -0.072400
      3 C15        -23.4070    28.1420   -23.7870 ca         1 IUZ       0.131500
      4 C17        -24.9220    26.5790   -23.5160 ca         1 IUZ       0.283000
      5 C01        -22.8630    23.7070   -25.6700 c3         1 IUZ       0.223100
      6 C03        -23.0760    25.9780   -24.7390 ca         1 IUZ       0.455900
      7 C04        -22.5960    27.2900   -24.5320 ca         1 IUZ      -0.102600
      8 C06        -21.5720    29.1530   -24.4290 cc         1 IUZ       0.402700
      9 C08        -23.2010    30.5750   -23.1090 c3         1 IUZ       0.082600
     10 C09        -23.7390    31.5830   -24.1240 c6         1 IUZ      -0.081700
     11 C11        -24.6900    33.9170   -24.3800 c6         1 IUZ      -0.072400
     12 C12        -25.8540    33.3590   -25.2020 c6         1 IUZ      -0.076400
     13 C14        -24.9100    31.0270   -24.9390 c6         1 IUZ      -0.071400
     14 N02        -22.3990    25.0630   -25.4400 nu         1 IUZ      -0.910100
     15 N05        -21.4460    27.9430   -24.9260 nd         1 IUZ      -0.552100
     16 N07        -22.7370    29.3350   -23.7250 na         1 IUZ      -0.276300
     17 N16        -24.5990    27.8260   -23.2490 nb         1 IUZ      -0.206000
     18 N19        -24.2730    25.6510   -24.2030 nb         1 IUZ      -0.283000
     19 H101       -24.9120    32.6350   -22.6600 hc         1 IUZ       0.045700
     20 H102       -23.2870    33.2780   -22.8570 hc         1 IUZ       0.045700
     21 H131       -26.3120    31.6550   -26.4600 hc         1 IUZ       0.040200
     22 H132       -24.6880    32.2930   -26.6670 hc         1 IUZ       0.040200
     23 H012       -22.1230    23.1970   -26.2820 h1         1 IUZ       0.047700
     24 H013       -22.9820    23.1660   -24.7290 h1         1 IUZ       0.047700
     25 H011       -23.8210    23.7050   -26.1930 h1         1 IUZ       0.047700
     26 H061       -20.8560    29.9530   -24.5350 h5         1 IUZ       0.068800
     27 H081       -23.9790    30.3020   -22.3950 h1         1 IUZ       0.071200
     28 H082       -22.3670    31.0050   -22.5530 h1         1 IUZ       0.071200
     29 H091       -22.9240    31.8230   -24.8190 hc         1 IUZ       0.047700
     30 H111       -25.0040    34.8100   -23.8340 hc         1 IUZ       0.040200
     31 H112       -23.8870    34.2270   -25.0580 hc         1 IUZ       0.040200
     32 H122       -26.6990    33.1550   -24.5350 hc         1 IUZ       0.041200
     33 H121       -26.1960    34.1040   -25.9260 hc         1 IUZ       0.041200
     34 H142       -24.6010    30.1300   -25.4810 hc         1 IUZ       0.045700
     35 H141       -25.7060    30.7220   -24.2490 hc         1 IUZ       0.045700
     36 H021       -21.5080    25.3410   -25.8200 hn         1 IUZ       0.517000
     37 CL18       -26.4690    26.0520   -22.8570 cl         1 IUZ      -0.149000
@<TRIPOS>BOND
     1     1    10 1   
     2     1    11 1   
     3     1    19 1   
     4     1    20 1   
     5     2    12 1   
     6     2    13 1   
     7     2    21 1   
     8     2    22 1   
     9     3     7 ar  
    10     3    16 1   
    11     3    17 ar  
    12     4    17 ar  
    13     4    18 ar  
    14     4    37 1   
    15     5    14 1   
    16     5    23 1   
    17     5    24 1   
    18     5    25 1   
    19     6     7 ar  
    20     6    14 1   
    21     6    18 ar  
    22     7    15 1   
    23     8    15 2   
    24     8    16 1   
    25     8    26 1   
    26     9    10 1   
    27     9    16 1   
    28     9    27 1   
    29     9    28 1   
    30    10    13 1   
    31    10    29 1   
    32    11    12 1   
    33    11    30 1   
    34    11    31 1   
    35    12    32 1   
    36    12    33 1   
    37    13    34 1   
    38    13    35 1   
    39    14    36 1   
@<TRIPOS>SUBSTRUCTURE
     1 IUZ         1 TEMP              0 ****  ****    0 ROOT
