@<TRIPOS>MOLECULE
IV0
   50    53     1     0     0
SMALL
No Charge or Current Charge


@<TRIPOS>ATOM
      1 C7          10.4470    37.0030   -10.4320 cc         1 IV0       0.243300
      2 C8           9.7530    37.9740    -9.7600 cd         1 IV0       0.110300
      3 C10         14.1500    36.2720   -13.1370 c          1 IV0       0.662100
      4 C13         17.1060    37.8120   -16.0240 ca         1 IV0       0.008800
      5 C17         11.4270    37.1440   -11.5640 c3         1 IV0      -0.123700
      6 C20         17.8310    38.1960   -14.8760 ca         1 IV0      -0.107500
      7 C21         16.9860    38.7150   -17.1000 ca         1 IV0      -0.107500
      8 C22          8.8290    33.7320    -8.1920 ca         1 IV0      -0.072000
      9 C24         17.5780    39.9890   -17.0270 ca         1 IV0      -0.104500
     10 C26          7.0180    34.6250    -6.2410 ca         1 IV0      -0.119500
     11 C28         18.2950    40.3670   -15.8790 ca         1 IV0      -0.108000
     12 C1          15.5940    36.0720   -15.1630 cc         1 IV0       0.034600
     13 N2          10.1200    35.7860    -9.9140 nc         1 IV0      -0.672000
     14 C3           9.2470    36.0860    -8.9580 cd         1 IV0       0.507500
     15 N4          16.5110    36.5500   -16.0940 na         1 IV0       0.170000
     16 N5          15.0500    36.7360   -14.0660 ns         1 IV0      -0.423100
     17 O6           8.9690    37.4180    -8.8020 os         1 IV0      -0.258000
     18 N9          16.8690    35.6720   -17.0930 nc         1 IV0      -0.515800
     19 C11         15.3500    34.8080   -15.6170 cd         1 IV0      -0.239000
     20 C12         16.1380    34.6150   -16.7790 cd         1 IV0       0.257900
     21 C14          8.5710    35.1170    -8.0690 ca         1 IV0      -0.137500
     22 O15         13.6760    35.1480   -13.1320 o          1 IV0      -0.599100
     23 N16         13.8380    37.2190   -12.1940 ns         1 IV0      -0.519900
     24 C18         12.8890    37.0150   -11.0960 c3         1 IV0       0.117000
     25 C19          9.7490    39.4700    -9.9270 c3         1 IV0      -0.115400
     26 C23          7.6570    35.5530    -7.0820 ca         1 IV0      -0.072000
     27 C25         18.4220    39.4700   -14.8040 ca         1 IV0      -0.104500
     28 C27          8.1880    32.8070    -7.3490 ca         1 IV0      -0.119500
     29 C29          7.2820    33.2530    -6.3730 ca         1 IV0      -0.091000
     30 H1          11.2190    36.3820   -12.3250 hc         1 IV0       0.060700
     31 H2          11.2910    38.1160   -12.0510 hc         1 IV0       0.060700
     32 H3          17.9420    37.5050   -14.0430 ha         1 IV0       0.133500
     33 H4          16.4310    38.4290   -17.9910 ha         1 IV0       0.133500
     34 H5           9.5270    33.3670    -8.9420 ha         1 IV0       0.131500
     35 H6          17.4800    40.6820   -17.8600 ha         1 IV0       0.119500
     36 H7           6.3160    34.9720    -5.4850 ha         1 IV0       0.117500
     37 H8          18.7530    41.3520   -15.8230 ha         1 IV0       0.118000
     38 H9          15.3420    37.6920   -13.9180 hn         1 IV0       0.322500
     39 H10         14.6800    34.0740   -15.1860 ha         1 IV0       0.171000
     40 H11         16.1970    33.7290   -17.3990 h4         1 IV0       0.037100
     41 H12         14.2870    38.1220   -12.2740 hn         1 IV0       0.305500
     42 H13         13.0500    36.0210   -10.6570 h1         1 IV0       0.067200
     43 H14         13.0890    37.7620   -10.3170 h1         1 IV0       0.067200
     44 H15          9.2960    39.7540   -10.8840 hc         1 IV0       0.056033
     45 H16          9.1800    39.9590    -9.1270 hc         1 IV0       0.056033
     46 H17         10.7700    39.8690    -9.9050 hc         1 IV0       0.056033
     47 H18          7.4360    36.6110    -6.9610 ha         1 IV0       0.131500
     48 H19         18.9810    39.7610   -13.9170 ha         1 IV0       0.119500
     49 H20          8.3940    31.7440    -7.4530 ha         1 IV0       0.117500
     50 H21          6.7870    32.5360    -5.7210 ha         1 IV0       0.115000
@<TRIPOS>BOND
     1     1     2 2   
     2     1     5 1   
     3     1    13 1   
     4     2    17 1   
     5     2    25 1   
     6     3    16 1   
     7     3    22 2   
     8     3    23 1   
     9     4     6 ar  
    10     4     7 ar  
    11     4    15 1   
    12     5    24 1   
    13     5    30 1   
    14     5    31 1   
    15     6    27 ar  
    16     6    32 1   
    17     7     9 ar  
    18     7    33 1   
    19     8    21 ar  
    20     8    28 ar  
    21     8    34 1   
    22     9    11 ar  
    23     9    35 1   
    24    10    26 ar  
    25    10    29 ar  
    26    10    36 1   
    27    11    27 ar  
    28    11    37 1   
    29    12    15 1   
    30    12    16 1   
    31    12    19 2   
    32    13    14 2   
    33    14    17 1   
    34    14    21 1   
    35    15    18 1   
    36    16    38 1   
    37    18    20 2   
    38    19    20 1   
    39    19    39 1   
    40    20    40 1   
    41    21    26 ar  
    42    23    24 1   
    43    23    41 1   
    44    24    42 1   
    45    24    43 1   
    46    25    44 1   
    47    25    45 1   
    48    25    46 1   
    49    26    47 1   
    50    27    48 1   
    51    28    29 ar  
    52    28    49 1   
    53    29    50 1   
@<TRIPOS>SUBSTRUCTURE
     1 IV0         1 TEMP              0 ****  ****    0 ROOT
