@<TRIPOS>MOLECULE
IV0
   50    53     1     0     0
SMALL
bcc


@<TRIPOS>ATOM
      1 C7          10.3530    37.1200   -10.5790 cc         1 IV0       0.243300
      2 C8           9.5130    38.0070    -9.9940 cd         1 IV0       0.154700
      3 C10         14.0850    36.4490   -13.1010 c          1 IV0       0.796100
      4 C13         17.1350    37.7300   -15.8370 ca         1 IV0       0.008800
      5 C17         11.3420    37.3300   -11.6690 c3         1 IV0      -0.123700
      6 C20         17.8530    37.9750   -14.6730 ca         1 IV0      -0.125500
      7 C21         17.1740    38.6310   -16.8950 ca         1 IV0      -0.125500
      8 C22          9.2520    33.7980    -8.1370 ca         1 IV0      -0.090000
      9 C24         17.9360    39.7830   -16.7810 ca         1 IV0      -0.122500
     10 C26          7.2780    34.5000    -6.3170 ca         1 IV0      -0.137500
     11 C28         18.6440    40.0440   -15.6140 ca         1 IV0      -0.126000
     12 C1          15.3680    36.1160   -15.1440 cc         1 IV0       0.085300
     13 N2          10.1970    35.8940    -9.9650 nc         1 IV0      -0.672000
     14 C3           9.2950    36.0760    -9.0610 cd         1 IV0       0.551900
     15 N4          16.3650    36.5510   -15.9580 na         1 IV0       0.119300
     16 N5          14.9710    36.8780   -14.0680 ns         1 IV0      -0.490100
     17 O6           8.8350    37.3330    -9.0260 os         1 IV0      -0.346800
     18 N9          16.5670    35.7230   -17.0000 nc         1 IV0      -0.515800
     19 C11         14.9180    34.9250   -15.6750 cd         1 IV0      -0.322300
     20 C12         15.7060    34.7470   -16.8240 cd         1 IV0       0.323200
     21 C14          8.7570    35.1030    -8.1210 ca         1 IV0      -0.137500
     22 O15         13.6470    35.3110   -13.0730 o          1 IV0      -0.599100
     23 N16         13.7720    37.3960   -12.1880 ns         1 IV0      -0.586900
     24 C18         12.7800    37.1660   -11.1640 c3         1 IV0       0.117000
     25 C19          9.2210    39.4430   -10.1850 c3         1 IV0      -0.115400
     26 C23          7.7640    35.4490    -7.2030 ca         1 IV0      -0.090000
     27 C25         18.5990    39.1410   -14.5620 ca         1 IV0      -0.122500
     28 C27          8.7610    32.8550    -7.2490 ca         1 IV0      -0.137500
     29 C29          7.7730    33.2030    -6.3360 ca         1 IV0      -0.109000
     30 H1          11.1590    36.6150   -12.4750 hc         1 IV0       0.060700
     31 H2          11.2170    38.3280   -12.0930 hc         1 IV0       0.060700
     32 H3          17.8450    37.2570   -13.8630 ha         1 IV0       0.151500
     33 H4          16.6110    38.4290   -17.7960 ha         1 IV0       0.151500
     34 H5          10.0230    33.5260    -8.8460 ha         1 IV0       0.149500
     35 H6          17.9700    40.4840   -17.6050 ha         1 IV0       0.137500
     36 H7           6.5080    34.7760    -5.6090 ha         1 IV0       0.135500
     37 H8          19.2320    40.9480   -15.5280 ha         1 IV0       0.136000
     38 H9          15.3090    37.8280   -14.0280 hn         1 IV0       0.322500
     39 H10         14.1350    34.2900   -15.3070 ha         1 IV0       0.189000
     40 H11         15.6650    33.9280   -17.5270 h4         1 IV0       0.037100
     41 H12         14.0560    38.3510   -12.3380 hn         1 IV0       0.305500
     42 H13         12.9180    36.1700   -10.7450 h1         1 IV0       0.067200
     43 H14         12.9700    37.8790   -10.3610 h1         1 IV0       0.067200
     44 H15          8.1740    39.6130   -10.4400 hc         1 IV0       0.056033
     45 H16          9.4430    40.0230    -9.2870 hc         1 IV0       0.056033
     46 H17          9.8300    39.8400   -10.9950 hc         1 IV0       0.056033
     47 H18          7.3650    36.4540    -7.1730 ha         1 IV0       0.149500
     48 H19         19.1560    39.3330   -13.6550 ha         1 IV0       0.137500
     49 H20          9.1530    31.8470    -7.2690 ha         1 IV0       0.135500
     50 H21          7.3910    32.4660    -5.6420 ha         1 IV0       0.133000
@<TRIPOS>BOND
     1     1     2 2   
     2     1     5 1   
     3     1    13 1   
     4     2    17 1   
     5     2    25 1   
     6     3    16 1   
     7     3    22 2   
     8     3    23 1   
     9     4     6 ar  
    10     4     7 ar  
    11     4    15 1   
    12     5    24 1   
    13     5    30 1   
    14     5    31 1   
    15     6    27 ar  
    16     6    32 1   
    17     7     9 ar  
    18     7    33 1   
    19     8    21 ar  
    20     8    28 ar  
    21     8    34 1   
    22     9    11 ar  
    23     9    35 1   
    24    10    26 ar  
    25    10    29 ar  
    26    10    36 1   
    27    11    27 ar  
    28    11    37 1   
    29    12    15 1   
    30    12    16 1   
    31    12    19 2   
    32    13    14 2   
    33    14    17 1   
    34    14    21 1   
    35    15    18 1   
    36    16    38 1   
    37    18    20 2   
    38    19    20 1   
    39    19    39 1   
    40    20    40 1   
    41    21    26 ar  
    42    23    24 1   
    43    23    41 1   
    44    24    42 1   
    45    24    43 1   
    46    25    44 1   
    47    25    45 1   
    48    25    46 1   
    49    26    47 1   
    50    27    48 1   
    51    28    29 ar  
    52    28    49 1   
    53    29    50 1   
@<TRIPOS>SUBSTRUCTURE
     1 IV0         1 TEMP              0 ****  ****    0 ROOT
