@<TRIPOS>MOLECULE
IV1
   86    87     1     0     0
SMALL
bcc


@<TRIPOS>ATOM
      1 C7         -26.6670    19.1210    -4.8190 c3         1 IV1      -0.030100
      2 C8         -27.6520    17.9840    -4.8250 ca         1 IV1      -0.075800
      3 C9         -28.9880    18.2110    -5.1320 ca         1 IV1      -0.118500
      4 O1         -29.6110     9.4710    -6.6540 oh         1 IV1      -0.599800
      5 C1         -23.6510    17.9550   -10.4160 c3         1 IV1       0.160300
      6 C5         -25.4550    18.3650    -6.9440 c3         1 IV1      -0.074900
      7 C6         -26.1880    19.4900    -6.2270 c3         1 IV1      -0.069900
      8 C4         -24.9410    18.7790    -8.3170 c3         1 IV1      -0.072400
      9 C3         -24.2340    17.6310    -9.0310 c3         1 IV1      -0.103400
     10 O3         -33.8510    23.2390    -5.0180 oh         1 IV1      -0.594800
     11 C2         -24.7440    18.3940   -11.3910 c3         1 IV1      -0.100350
     12 C          -22.9470    16.7180   -10.9600 c3         1 IV1      -0.100350
     13 O          -22.6490    18.9610   -10.3180 oh         1 IV1      -0.599800
     14 C10        -29.9040    17.1580    -5.1980 ca         1 IV1      -0.046800
     15 C11        -29.4400    15.8600    -4.9630 ca         1 IV1      -0.118500
     16 C12        -28.1100    15.6040    -4.6580 ca         1 IV1      -0.075800
     17 C13        -27.2300    16.6790    -4.5820 ca         1 IV1      -0.123000
     18 C14        -27.6110    14.2000    -4.4500 c3         1 IV1      -0.030100
     19 C15        -26.6470    13.7400    -5.5490 c3         1 IV1      -0.069900
     20 C16        -27.2130    13.8060    -6.9660 c3         1 IV1      -0.074900
     21 C17        -28.5420    13.0840    -7.1780 c3         1 IV1      -0.072400
     22 C18        -28.5020    11.6000    -6.8330 c3         1 IV1      -0.103400
     23 C19        -29.8420    10.8520    -6.9220 c3         1 IV1       0.160300
     24 C20        -30.8490    11.4040    -5.9130 c3         1 IV1      -0.100350
     25 C21        -30.4230    10.9040    -8.3280 c3         1 IV1      -0.100350
     26 C22        -31.3180    17.3420    -5.5110 ce         1 IV1      -0.107200
     27 C23        -31.9760    18.5090    -5.6110 cf         1 IV1      -0.116000
     28 C24        -33.3880    18.5760    -5.9130 cf         1 IV1      -0.118000
     29 C25        -34.1310    19.6860    -6.0530 ce         1 IV1      -0.059200
     30 C26        -35.6140    19.6140    -6.2870 c6         1 IV1      -0.032200
     31 C27        -36.3710    20.4230    -5.2400 c6         1 IV1       0.156100
     32 C28        -35.8420    21.8540    -5.2080 c6         1 IV1      -0.148400
     33 C29        -34.3320    21.9210    -4.9560 c6         1 IV1       0.192300
     34 C30        -33.6030    21.0630    -5.9600 ce         1 IV1      -0.091200
     35 C31        -32.6160    21.5080    -6.7350 c2         1 IV1      -0.182000
     36 O2         -36.2060    19.7650    -4.0010 oh         1 IV1      -0.591800
     37 H1         -25.8030    18.8540    -4.2040 hc         1 IV1       0.046700
     38 H2         -27.1220    20.0010    -4.3590 hc         1 IV1       0.046700
     39 H3         -29.3120    19.2270    -5.3290 ha         1 IV1       0.128500
     40 H4         -29.2250     9.4000    -5.7740 ho         1 IV1       0.399000
     41 H5         -26.1170    17.5010    -7.0540 hc         1 IV1       0.041450
     42 H6         -24.6150    18.0260    -6.3270 hc         1 IV1       0.041450
     43 H7         -25.5290    20.3600    -6.1510 hc         1 IV1       0.038700
     44 H8         -27.0470    19.8090    -6.8270 hc         1 IV1       0.038700
     45 H9         -24.2630    19.6310    -8.2000 hc         1 IV1       0.038200
     46 H10        -25.7840    19.1370    -8.9160 hc         1 IV1       0.038200
     47 H11        -24.9360    16.7980    -9.1390 hc         1 IV1       0.045450
     48 H12        -23.4210    17.2650    -8.3950 hc         1 IV1       0.045450
     49 H13        -34.2480    23.7370    -4.2960 ho         1 IV1       0.405000
     50 H14        -25.2160    19.3280   -11.0800 hc         1 IV1       0.040950
     51 H15        -24.3310    18.5490   -12.3890 hc         1 IV1       0.040950
     52 H16        -25.5300    17.6410   -11.4660 hc         1 IV1       0.040950
     53 H17        -22.1460    16.3930   -10.2920 hc         1 IV1       0.040950
     54 H18        -23.6510    15.8930   -11.0620 hc         1 IV1       0.040950
     55 H19        -22.5130    16.9110   -11.9430 hc         1 IV1       0.040950
     56 H20        -23.0720    19.7910   -10.0750 ho         1 IV1       0.399000
     57 H21        -30.1420    15.0340    -5.0170 ha         1 IV1       0.128500
     58 H22        -26.1870    16.4980    -4.3400 ha         1 IV1       0.128000
     59 H23        -28.4600    13.5150    -4.3860 hc         1 IV1       0.046700
     60 H24        -27.0950    14.1350    -3.4880 hc         1 IV1       0.046700
     61 H25        -26.3260    12.7210    -5.3180 hc         1 IV1       0.038700
     62 H26        -25.7420    14.3510    -5.5090 hc         1 IV1       0.038700
     63 H27        -26.4650    13.3970    -7.6540 hc         1 IV1       0.041450
     64 H28        -27.3390    14.8550    -7.2530 hc         1 IV1       0.041450
     65 H29        -29.3180    13.5840    -6.5940 hc         1 IV1       0.038200
     66 H30        -28.8340    13.2110    -8.2240 hc         1 IV1       0.038200
     67 H31        -27.7840    11.0980    -7.4910 hc         1 IV1       0.045450
     68 H32        -28.1250    11.4720    -5.8110 hc         1 IV1       0.045450
     69 H33        -30.4420    11.3810    -4.8980 hc         1 IV1       0.040950
     70 H34        -31.1220    12.4360    -6.1330 hc         1 IV1       0.040950
     71 H35        -31.7660    10.8120    -5.9240 hc         1 IV1       0.040950
     72 H36        -31.3150    10.2790    -8.4000 hc         1 IV1       0.040950
     73 H37        -30.7120    11.9200    -8.5970 hc         1 IV1       0.040950
     74 H38        -29.7000    10.5540    -9.0680 hc         1 IV1       0.040950
     75 H39        -31.8800    16.4240    -5.6670 ha         1 IV1       0.119000
     76 H40        -31.4530    19.4440    -5.4460 ha         1 IV1       0.129000
     77 H41        -33.8960    17.6200    -6.0080 ha         1 IV1       0.121000
     78 H42        -35.8500    20.0370    -7.2690 hc         1 IV1       0.058200
     79 H43        -35.9600    18.5780    -6.2900 hc         1 IV1       0.058200
     80 H44        -37.4320    20.4530    -5.5240 h1         1 IV1       0.033700
     81 H45        -36.0640    22.3320    -6.1660 hc         1 IV1       0.049700
     82 H46        -36.3680    22.4290    -4.4380 hc         1 IV1       0.049700
     83 H47        -34.1340    21.4870    -3.9640 h1         1 IV1       0.047700
     84 H48        -32.2490    22.5240    -6.6800 ha         1 IV1       0.123000
     85 H49        -32.1480    20.8590    -7.4640 ha         1 IV1       0.123000
     86 H50        -36.6820    20.2620    -3.3280 ho         1 IV1       0.400000
@<TRIPOS>BOND
     1     1     2 1   
     2     1     7 1   
     3     1    37 1   
     4     1    38 1   
     5     2     3 ar  
     6     2    17 ar  
     7     3    14 ar  
     8     3    39 1   
     9     4    23 1   
    10     4    40 1   
    11     5     9 1   
    12     5    11 1   
    13     5    12 1   
    14     5    13 1   
    15     6     7 1   
    16     6     8 1   
    17     6    41 1   
    18     6    42 1   
    19     7    43 1   
    20     7    44 1   
    21     8     9 1   
    22     8    45 1   
    23     8    46 1   
    24     9    47 1   
    25     9    48 1   
    26    10    33 1   
    27    10    49 1   
    28    11    50 1   
    29    11    51 1   
    30    11    52 1   
    31    12    53 1   
    32    12    54 1   
    33    12    55 1   
    34    13    56 1   
    35    14    15 ar  
    36    14    26 1   
    37    15    16 ar  
    38    15    57 1   
    39    16    17 ar  
    40    16    18 1   
    41    17    58 1   
    42    18    19 1   
    43    18    59 1   
    44    18    60 1   
    45    19    20 1   
    46    19    61 1   
    47    19    62 1   
    48    20    21 1   
    49    20    63 1   
    50    20    64 1   
    51    21    22 1   
    52    21    65 1   
    53    21    66 1   
    54    22    23 1   
    55    22    67 1   
    56    22    68 1   
    57    23    24 1   
    58    23    25 1   
    59    24    69 1   
    60    24    70 1   
    61    24    71 1   
    62    25    72 1   
    63    25    73 1   
    64    25    74 1   
    65    26    27 2   
    66    26    75 1   
    67    27    28 1   
    68    27    76 1   
    69    28    29 2   
    70    28    77 1   
    71    29    30 1   
    72    29    34 1   
    73    30    31 1   
    74    30    78 1   
    75    30    79 1   
    76    31    32 1   
    77    31    36 1   
    78    31    80 1   
    79    32    33 1   
    80    32    81 1   
    81    32    82 1   
    82    33    34 1   
    83    33    83 1   
    84    34    35 2   
    85    35    84 1   
    86    35    85 1   
    87    36    86 1   
@<TRIPOS>SUBSTRUCTURE
     1 IV1         1 TEMP              0 ****  ****    0 ROOT
