@<TRIPOS>MOLECULE
IV1
   86    87     1     0     0
SMALL
No Charge or Current Charge


@<TRIPOS>ATOM
      1 C7         -26.6490    19.1150    -4.7180 c3         1 IV1      -0.030100
      2 C8         -27.6470    17.9650    -4.6420 ca         1 IV1      -0.075800
      3 C9         -29.0160    18.1970    -4.8720 ca         1 IV1      -0.100500
      4 O1         -29.2860     9.4990    -7.1550 oh         1 IV1      -0.662000
      5 C1         -23.9560    17.7050   -10.5350 c3         1 IV1       0.183500
      6 C5         -25.5530    18.2800    -6.9120 c3         1 IV1      -0.074900
      7 C6         -26.2390    19.4520    -6.1700 c3         1 IV1      -0.069900
      8 C4         -25.1150    18.6380    -8.3480 c3         1 IV1      -0.072400
      9 C3         -24.4580    17.4390    -9.0840 c3         1 IV1      -0.103400
     10 O3         -33.7970    23.4660    -5.4180 oh         1 IV1      -0.657000
     11 C2         -25.0900    18.1780   -11.4760 c3         1 IV1      -0.100350
     12 C          -23.2910    16.4310   -11.1070 c3         1 IV1      -0.100350
     13 O          -22.9580    18.7250   -10.4970 oh         1 IV1      -0.662000
     14 C10        -29.9400    17.1330    -4.8400 ca         1 IV1      -0.046800
     15 C11        -29.4720    15.8290    -4.5870 ca         1 IV1      -0.100500
     16 C12        -28.1040    15.5820    -4.3620 ca         1 IV1      -0.075800
     17 C13        -27.1990    16.6590    -4.3770 ca         1 IV1      -0.105000
     18 C14        -27.6060    14.1590    -4.1250 c3         1 IV1      -0.030100
     19 C15        -26.5210    13.6990    -5.1320 c3         1 IV1      -0.069900
     20 C16        -26.8920    13.8680    -6.6300 c3         1 IV1      -0.074900
     21 C17        -28.2000    13.1750    -7.0860 c3         1 IV1      -0.072400
     22 C18        -28.2010    11.6310    -6.9150 c3         1 IV1      -0.103400
     23 C19        -29.4870    10.8930    -7.3920 c3         1 IV1       0.183500
     24 C20        -30.7370    11.3210    -6.5850 c3         1 IV1      -0.100350
     25 C21        -29.7320    11.0640    -8.9100 c3         1 IV1      -0.100350
     26 C22        -31.3970    17.3500    -5.0840 ce         1 IV1      -0.157200
     27 C23        -32.0730    18.5130    -5.2990 cf         1 IV1      -0.166000
     28 C24        -33.5130    18.5970    -5.5220 cf         1 IV1      -0.168000
     29 C25        -34.2210    19.7300    -5.8040 ce         1 IV1      -0.059200
     30 C26        -35.7430    19.6870    -6.0080 c6         1 IV1      -0.032200
     31 C27        -36.4750    20.7640    -5.1630 c6         1 IV1       0.179300
     32 C28        -35.8500    22.1630    -5.3860 c6         1 IV1      -0.148400
     33 C29        -34.3210    22.1610    -5.1400 c6         1 IV1       0.215500
     34 C30        -33.6470    21.0720    -6.0040 ce         1 IV1      -0.091200
     35 C31        -32.6510    21.3110    -6.8930 c2         1 IV1      -0.282000
     36 O2         -36.4340    20.4230    -3.7720 oh         1 IV1      -0.654000
     37 H1         -25.7490    18.8810    -4.1360 hc         1 IV1       0.046700
     38 H2         -27.0800    20.0120    -4.2570 hc         1 IV1       0.046700
     39 H3         -29.3470    19.2090    -5.0840 ha         1 IV1       0.110500
     40 H4         -29.1430     9.3920    -6.1910 ho         1 IV1       0.438000
     41 H5         -26.2420    17.4280    -6.9600 hc         1 IV1       0.041450
     42 H6         -24.6780    17.9520    -6.3370 hc         1 IV1       0.041450
     43 H7         -25.5580    20.3120    -6.1520 hc         1 IV1       0.038700
     44 H8         -27.1280    19.7640    -6.7310 hc         1 IV1       0.038700
     45 H9         -24.4130    19.4800    -8.3040 hc         1 IV1       0.038200
     46 H10        -25.9960    18.9780    -8.9050 hc         1 IV1       0.038200
     47 H11        -25.1800    16.6130    -9.1120 hc         1 IV1       0.045450
     48 H12        -23.6140    17.0830    -8.4800 hc         1 IV1       0.045450
     49 H13        -34.2600    24.0840    -4.8120 ho         1 IV1       0.444000
     50 H14        -25.4970    19.1470   -11.1640 hc         1 IV1       0.040950
     51 H15        -24.7230    18.2890   -12.5030 hc         1 IV1       0.040950
     52 H16        -25.9110    17.4510   -11.4880 hc         1 IV1       0.040950
     53 H17        -22.4600    16.1030   -10.4710 hc         1 IV1       0.040950
     54 H18        -24.0150    15.6100   -11.1700 hc         1 IV1       0.040950
     55 H19        -22.8950    16.6130   -12.1130 hc         1 IV1       0.040950
     56 H20        -23.3730    19.5090   -10.0810 ho         1 IV1       0.438000
     57 H21        -30.1750    15.0000    -4.5730 ha         1 IV1       0.110500
     58 H22        -26.1410    16.4790    -4.2050 ha         1 IV1       0.110000
     59 H23        -28.4420    13.4500    -4.1590 hc         1 IV1       0.046700
     60 H24        -27.1950    14.0820    -3.1110 hc         1 IV1       0.046700
     61 H25        -26.2740    12.6490    -4.9320 hc         1 IV1       0.038700
     62 H26        -25.5990    14.2610    -4.9420 hc         1 IV1       0.038700
     63 H27        -26.0610    13.4900    -7.2400 hc         1 IV1       0.041450
     64 H28        -26.9700    14.9380    -6.8580 hc         1 IV1       0.041450
     65 H29        -29.0450    13.6120    -6.5420 hc         1 IV1       0.038200
     66 H30        -28.3540    13.4220    -8.1430 hc         1 IV1       0.038200
     67 H31        -27.3370    11.2230    -7.4550 hc         1 IV1       0.045450
     68 H32        -28.0400    11.3950    -5.8560 hc         1 IV1       0.045450
     69 H33        -30.5610    11.2290    -5.5060 hc         1 IV1       0.040950
     70 H34        -31.0080    12.3610    -6.7970 hc         1 IV1       0.040950
     71 H35        -31.6000    10.6950    -6.8430 hc         1 IV1       0.040950
     72 H36        -30.5630    10.4300    -9.2440 hc         1 IV1       0.040950
     73 H37        -29.9870    12.1010    -9.1570 hc         1 IV1       0.040950
     74 H38        -28.8410    10.7850    -9.4840 hc         1 IV1       0.040950
     75 H39        -31.9820    16.4290    -5.0860 ha         1 IV1       0.169000
     76 H40        -31.5200    19.4510    -5.2950 ha         1 IV1       0.179000
     77 H41        -34.0680    17.6610    -5.4350 ha         1 IV1       0.171000
     78 H42        -35.9630    19.8540    -7.0710 hc         1 IV1       0.058200
     79 H43        -36.1450    18.6930    -5.7680 hc         1 IV1       0.058200
     80 H44        -37.5240    20.7970    -5.4930 h1         1 IV1       0.033700
     81 H45        -36.0510    22.4810    -6.4180 hc         1 IV1       0.049700
     82 H46        -36.3400    22.9010    -4.7360 hc         1 IV1       0.049700
     83 H47        -34.1380    21.9120    -4.0840 h1         1 IV1       0.047700
     84 H48        -32.2370    22.3050    -7.0520 ha         1 IV1       0.173000
     85 H49        -32.2260    20.5100    -7.4960 ha         1 IV1       0.173000
     86 H50        -37.0370    21.0460    -3.3120 ho         1 IV1       0.439000
@<TRIPOS>BOND
     1     1     2 1   
     2     1     7 1   
     3     1    37 1   
     4     1    38 1   
     5     2     3 ar  
     6     2    17 ar  
     7     3    14 ar  
     8     3    39 1   
     9     4    23 1   
    10     4    40 1   
    11     5     9 1   
    12     5    11 1   
    13     5    12 1   
    14     5    13 1   
    15     6     7 1   
    16     6     8 1   
    17     6    41 1   
    18     6    42 1   
    19     7    43 1   
    20     7    44 1   
    21     8     9 1   
    22     8    45 1   
    23     8    46 1   
    24     9    47 1   
    25     9    48 1   
    26    10    33 1   
    27    10    49 1   
    28    11    50 1   
    29    11    51 1   
    30    11    52 1   
    31    12    53 1   
    32    12    54 1   
    33    12    55 1   
    34    13    56 1   
    35    14    15 ar  
    36    14    26 1   
    37    15    16 ar  
    38    15    57 1   
    39    16    17 ar  
    40    16    18 1   
    41    17    58 1   
    42    18    19 1   
    43    18    59 1   
    44    18    60 1   
    45    19    20 1   
    46    19    61 1   
    47    19    62 1   
    48    20    21 1   
    49    20    63 1   
    50    20    64 1   
    51    21    22 1   
    52    21    65 1   
    53    21    66 1   
    54    22    23 1   
    55    22    67 1   
    56    22    68 1   
    57    23    24 1   
    58    23    25 1   
    59    24    69 1   
    60    24    70 1   
    61    24    71 1   
    62    25    72 1   
    63    25    73 1   
    64    25    74 1   
    65    26    27 2   
    66    26    75 1   
    67    27    28 1   
    68    27    76 1   
    69    28    29 2   
    70    28    77 1   
    71    29    30 1   
    72    29    34 1   
    73    30    31 1   
    74    30    78 1   
    75    30    79 1   
    76    31    32 1   
    77    31    36 1   
    78    31    80 1   
    79    32    33 1   
    80    32    81 1   
    81    32    82 1   
    82    33    34 1   
    83    33    83 1   
    84    34    35 2   
    85    35    84 1   
    86    35    85 1   
    87    36    86 1   
@<TRIPOS>SUBSTRUCTURE
     1 IV1         1 TEMP              0 ****  ****    0 ROOT
