@<TRIPOS>MOLECULE
IV2
   19    20     1     0     0
SMALL
No Charge or Current Charge


@<TRIPOS>ATOM
      1 C1           0.9490    -0.7660     0.0210 ca         1 IV2      -0.032300
      2 C2           1.3780    -2.2360     0.0220 c3         1 IV2      -0.043800
      3 C3           1.9250     0.2590     0.0810 ca         1 IV2       0.127000
      4 C4           1.5480     1.6170     0.0800 ca         1 IV2      -0.113000
      5 C5           0.1920     1.9740     0.0200 ca         1 IV2      -0.057000
      6 C6          -0.7640     0.9520    -0.0390 ca         1 IV2      -0.190000
      7 C7          -2.5900    -0.5710    -0.1490 cc         1 IV2       0.667100
      8 C8          -0.4150    -0.3900    -0.0400 ca         1 IV2       0.154400
      9 N1          -1.4820    -1.2890    -0.1020 nd         1 IV2      -0.645100
     10 N3          -3.7470    -1.2450    -0.2040 nv         1 IV2      -1.044200
     11 S           -2.5010     1.2000    -0.1180 ss         1 IV2      -0.044200
     12 Cl           3.6460    -0.1290     0.1580 cl         1 IV2      -0.208000
     13 H21C         1.9370    -2.4780     0.9340 hc         1 IV2       0.054367
     14 H22C         0.5310    -2.9290    -0.0290 hc         1 IV2       0.054367
     15 H23C         2.0250    -2.4550    -0.8350 hc         1 IV2       0.054367
     16 H4           2.3110     2.3900     0.1270 ha         1 IV2       0.131000
     17 H5          -0.1070     3.0210     0.0190 ha         1 IV2       0.126000
     18 H31N        -3.6760    -2.2230     0.0520 hn         1 IV2       0.504500
     19 H32N        -4.5790    -0.7610     0.1140 hn         1 IV2       0.504500
@<TRIPOS>BOND
     1     1     2 1   
     2     1     3 ar  
     3     1     8 ar  
     4     2    13 1   
     5     2    14 1   
     6     2    15 1   
     7     3     4 ar  
     8     3    12 1   
     9     4     5 ar  
    10     4    16 1   
    11     5     6 ar  
    12     5    17 1   
    13     6     8 ar  
    14     6    11 1   
    15     7     9 2   
    16     7    10 1   
    17     7    11 1   
    18     8     9 1   
    19    10    18 1   
    20    10    19 1   
@<TRIPOS>SUBSTRUCTURE
     1 IV2         1 TEMP              0 ****  ****    0 ROOT
