@<TRIPOS>MOLECULE
IV2
   19    20     1     0     0
SMALL
bcc


@<TRIPOS>ATOM
      1 C1           0.9750    -0.7670     0.0250 ca         1 IV2      -0.032300
      2 C2           1.3770    -2.2080     0.0290 c3         1 IV2      -0.043800
      3 C3           1.9000     0.2710     0.0540 ca         1 IV2       0.035400
      4 C4           1.5490     1.6170     0.0520 ca         1 IV2      -0.131000
      5 C5           0.2120     1.9790     0.0210 ca         1 IV2      -0.075000
      6 C6          -0.7310     0.9680    -0.0060 ca         1 IV2      -0.063100
      7 C7          -2.5590    -0.6520    -0.0540 cc         1 IV2       0.667100
      8 C8          -0.3760    -0.3920    -0.0050 ca         1 IV2       0.154400
      9 N1          -1.4250    -1.2750    -0.0330 nd         1 IV2      -0.645100
     10 N3          -3.7520    -1.2470    -0.0880 nv         1 IV2      -0.933800
     11 S           -2.4650     1.1090    -0.0440 ss         1 IV2      -0.171100
     12 CL           3.5930    -0.1220     0.0970 cl         1 IV2      -0.116400
     13 H21C         1.9070    -2.4690     0.9470 hc         1 IV2       0.054367
     14 H22C         0.5060    -2.8520    -0.0500 hc         1 IV2       0.054367
     15 H23C         2.0450    -2.4370    -0.8020 hc         1 IV2       0.054367
     16 H4           2.3160     2.3790     0.0760 ha         1 IV2       0.149000
     17 H5          -0.0720     3.0220     0.0220 ha         1 IV2       0.144000
     18 H31N        -3.8040    -2.2510    -0.0650 hn         1 IV2       0.449300
     19 H32N        -4.6140    -0.7310    -0.0660 hn         1 IV2       0.449300
@<TRIPOS>BOND
     1     1     2 1   
     2     1     3 ar  
     3     1     8 ar  
     4     2    13 1   
     5     2    14 1   
     6     2    15 1   
     7     3     4 ar  
     8     3    12 1   
     9     4     5 ar  
    10     4    16 1   
    11     5     6 ar  
    12     5    17 1   
    13     6     8 ar  
    14     6    11 1   
    15     7     9 2   
    16     7    10 1   
    17     7    11 1   
    18     8     9 1   
    19    10    18 1   
    20    10    19 1   
@<TRIPOS>SUBSTRUCTURE
     1 IV2         1 TEMP              0 ****  ****    0 ROOT
