@<TRIPOS>MOLECULE
IV4
   52    56     1     0     0
SMALL
abcg2


@<TRIPOS>ATOM
      1 N1          14.5630    37.2300   -14.6400 n          1 IV4      -0.209200
      2 C6           9.7820    35.7410    -8.9650 cc         1 IV4       0.508500
      3 C7          10.3850    36.7340   -10.7430 cd         1 IV4       0.239300
      4 C10          9.3710    37.4560   -10.2070 cc         1 IV4       0.114300
      5 C13         14.2970    38.5980   -14.5590 cc         1 IV4      -0.152400
      6 C15         16.0230    35.4600   -17.3600 cc         1 IV4       0.240900
      7 C17         13.5940    38.7900   -13.4380 cd         1 IV4      -0.161400
      8 C20          9.6050    34.8460    -7.8300 ca         1 IV4      -0.137500
      9 C21          8.6580    38.6920   -10.5870 c3         1 IV4      -0.116400
     10 C22         17.5270    37.7100   -13.8200 ca         1 IV4      -0.097000
     11 C24         10.4150    33.7140    -7.7210 ca         1 IV4      -0.072000
     12 C26          8.5030    34.2300    -5.7770 ca         1 IV4      -0.119500
     13 C28         18.3420    38.6170   -13.1580 ca         1 IV4      -0.105000
     14 C2          15.2730    36.5950   -15.6480 cd         1 IV4      -0.002400
     15 C3          14.0160    36.5740   -13.5520 c          1 IV4       0.575000
     16 N4          16.5810    36.8710   -15.8920 na         1 IV4       0.211000
     17 N5          10.6310    35.6450    -9.9310 nd         1 IV4      -0.673000
     18 O8           8.9880    36.8140    -9.0700 os         1 IV4      -0.259000
     19 N9          13.4320    37.5630   -12.8140 n          1 IV4      -0.300000
     20 N11         17.0370    36.1940   -16.9450 nd         1 IV4      -0.499800
     21 C12         14.8750    35.6730   -16.5810 cc         1 IV4      -0.194000
     22 C14         11.1860    36.9900   -11.9690 c3         1 IV4      -0.118700
     23 O16         14.0570    35.3780   -13.3130 o          1 IV4      -0.551000
     24 C18         17.4210    37.7760   -15.2030 ca         1 IV4       0.005800
     25 C19         12.6420    37.3160   -11.6300 c3         1 IV4       0.124000
     26 C23         18.1340    38.7230   -15.9270 ca         1 IV4      -0.097000
     27 C25          8.6450    35.0980    -6.8490 ca         1 IV4      -0.072000
     28 C27         18.9590    39.6130   -15.2560 ca         1 IV4      -0.105000
     29 C29         10.2660    32.8510    -6.6480 ca         1 IV4      -0.119500
     30 C30          9.3110    33.1060    -5.6710 ca         1 IV4      -0.091000
     31 C31         19.0580    39.5680   -13.8720 ca         1 IV4      -0.106000
     32 H1          14.6350    39.2920   -15.3090 h4         1 IV4       0.235000
     33 H2          16.1410    34.8020   -18.2070 h4         1 IV4       0.041100
     34 H3          13.1960    39.6980   -13.0160 h4         1 IV4       0.226000
     35 H4           8.7410    39.4580    -9.8140 hc         1 IV4       0.057033
     36 H5           9.0800    39.0970   -11.5040 hc         1 IV4       0.057033
     37 H6           7.5960    38.5080   -10.7610 hc         1 IV4       0.057033
     38 H7          16.9990    36.9480   -13.2620 ha         1 IV4       0.134000
     39 H8          11.1590    33.5120    -8.4800 ha         1 IV4       0.131500
     40 H9           7.7550    34.4350    -5.0210 ha         1 IV4       0.117500
     41 H10         18.4240    38.5700   -12.0800 ha         1 IV4       0.119000
     42 H11         13.8970    35.2360   -16.6910 ha         1 IV4       0.158000
     43 H12         11.1570    36.1100   -12.6170 hc         1 IV4       0.064200
     44 H13         10.7510    37.8160   -12.5350 hc         1 IV4       0.064200
     45 H14         13.0950    36.4960   -11.0730 h1         1 IV4       0.070700
     46 H15         12.6940    38.2040   -11.0000 h1         1 IV4       0.070700
     47 H16         18.0410    38.7630   -17.0040 ha         1 IV4       0.134000
     48 H17          8.0060    35.9680    -6.9130 ha         1 IV4       0.131500
     49 H18         19.5160    40.3510   -15.8180 ha         1 IV4       0.119000
     50 H19         10.8980    31.9760    -6.5740 ha         1 IV4       0.117500
     51 H20          9.1960    32.4310    -4.8340 ha         1 IV4       0.115000
     52 H21         19.6950    40.2700   -13.3510 ha         1 IV4       0.116000
@<TRIPOS>BOND
     1     1     5 1   
     2     1    14 1   
     3     1    15 1   
     4     2     8 1   
     5     2    17 2   
     6     2    18 1   
     7     3     4 2   
     8     3    17 1   
     9     3    22 1   
    10     4     9 1   
    11     4    18 1   
    12     5     7 2   
    13     5    32 1   
    14     6    20 2   
    15     6    21 1   
    16     6    33 1   
    17     7    19 1   
    18     7    34 1   
    19     8    11 ar  
    20     8    27 ar  
    21     9    35 1   
    22     9    36 1   
    23     9    37 1   
    24    10    13 ar  
    25    10    24 ar  
    26    10    38 1   
    27    11    29 ar  
    28    11    39 1   
    29    12    27 ar  
    30    12    30 ar  
    31    12    40 1   
    32    13    31 ar  
    33    13    41 1   
    34    14    16 1   
    35    14    21 2   
    36    15    19 1   
    37    15    23 2   
    38    16    20 1   
    39    16    24 1   
    40    19    25 1   
    41    21    42 1   
    42    22    25 1   
    43    22    43 1   
    44    22    44 1   
    45    24    26 ar  
    46    25    45 1   
    47    25    46 1   
    48    26    28 ar  
    49    26    47 1   
    50    27    48 1   
    51    28    31 ar  
    52    28    49 1   
    53    29    30 ar  
    54    29    50 1   
    55    30    51 1   
    56    31    52 1   
@<TRIPOS>SUBSTRUCTURE
     1 IV4         1 TEMP              0 ****  ****    0 ROOT
