@<TRIPOS>MOLECULE
IV4
   52    56     1     0     0
SMALL
No Charge or Current Charge


@<TRIPOS>ATOM
      1 N1          15.0950    36.8770   -14.2120 n          1 IV4      -0.209200
      2 C6           9.5510    35.7490    -8.8250 cc         1 IV4       0.508500
      3 C7          10.5540    36.7800   -10.3890 cd         1 IV4       0.239300
      4 C10          9.8860    37.7040    -9.6240 cc         1 IV4       0.114300
      5 C13         14.8560    38.2480   -14.0830 cc         1 IV4      -0.152400
      6 C15         16.7310    34.7860   -16.6530 cc         1 IV4       0.240900
      7 C17         14.0350    38.4420   -12.9990 cd         1 IV4      -0.161400
      8 C20          9.0120    34.7390    -7.9030 ca         1 IV4      -0.137500
      9 C21          9.7830    39.2000    -9.7290 c3         1 IV4      -0.116400
     10 C22         18.0890    38.3090   -14.6070 ca         1 IV4      -0.097000
     11 C24          9.3160    33.3700    -8.0840 ca         1 IV4      -0.072000
     12 C26          7.6710    34.1400    -5.9430 ca         1 IV4      -0.119500
     13 C28         18.6040    39.5920   -14.3540 ca         1 IV4      -0.105000
     14 C2          15.8730    36.2670   -15.2100 cd         1 IV4      -0.002400
     15 C3          14.3990    36.1950   -13.1930 c          1 IV4       0.575000
     16 N4          16.8760    36.7780   -16.0620 na         1 IV4       0.211000
     17 N5          10.3360    35.5230    -9.8700 nd         1 IV4      -0.673000
     18 O8           9.2400    37.0620    -8.6190 os         1 IV4      -0.259000
     19 N9          13.7570    37.1980   -12.4610 n          1 IV4      -0.300000
     20 N11         17.4310    35.8640   -16.9430 nd         1 IV4      -0.499800
     21 C12         15.7960    34.9650   -15.6180 cc         1 IV4      -0.194000
     22 C14         11.4080    37.0060   -11.6070 c3         1 IV4      -0.118700
     23 O16         14.3640    34.9910   -12.9700 o          1 IV4      -0.551000
     24 C18         17.3900    38.0480   -15.8040 ca         1 IV4       0.005800
     25 C19         12.9110    36.9390   -11.2820 c3         1 IV4       0.124000
     26 C23         17.2290    39.0780   -16.7530 ca         1 IV4      -0.097000
     27 C25          8.1820    35.1130    -6.8210 ca         1 IV4      -0.072000
     28 C27         17.7450    40.3610   -16.4980 ca         1 IV4      -0.105000
     29 C29          8.8020    32.4000    -7.2050 ca         1 IV4      -0.119500
     30 C30          7.9800    32.7840    -6.1340 ca         1 IV4      -0.091000
     31 C31         18.4300    40.6190   -15.2980 ca         1 IV4      -0.106000
     32 H1          15.2750    38.9460   -14.8000 h4         1 IV4       0.235000
     33 H2          16.9280    33.8750   -17.2020 h4         1 IV4       0.041100
     34 H3          13.6070    39.3430   -12.5650 h4         1 IV4       0.226000
     35 H4           9.2830    39.6250    -8.8500 hc         1 IV4       0.057033
     36 H5          10.7780    39.6530    -9.8040 hc         1 IV4       0.057033
     37 H6           9.2100    39.4870   -10.6180 hc         1 IV4       0.057033
     38 H7          18.2260    37.5170   -13.8730 ha         1 IV4       0.134000
     39 H8           9.9520    33.0530    -8.9080 ha         1 IV4       0.131500
     40 H9           7.0330    34.4400    -5.1140 ha         1 IV4       0.117500
     41 H10         19.1370    39.7910   -13.4260 ha         1 IV4       0.119000
     42 H11         15.1360    34.1890   -15.2510 ha         1 IV4       0.158000
     43 H12         11.1730    36.2550   -12.3700 hc         1 IV4       0.064200
     44 H13         11.1770    37.9820   -12.0490 hc         1 IV4       0.064200
     45 H14         13.1520    35.9500   -10.8700 h1         1 IV4       0.070700
     46 H15         13.1500    37.6840   -10.5120 h1         1 IV4       0.070700
     47 H16         16.7010    38.8830   -17.6840 ha         1 IV4       0.134000
     48 H17          7.9290    36.1580    -6.6520 ha         1 IV4       0.131500
     49 H18         17.6150    41.1550   -17.2310 ha         1 IV4       0.119000
     50 H19          9.0430    31.3500    -7.3540 ha         1 IV4       0.117500
     51 H20          7.5830    32.0330    -5.4540 ha         1 IV4       0.115000
     52 H21         18.8290    41.6120   -15.1010 ha         1 IV4       0.116000
@<TRIPOS>BOND
     1     1     5 1   
     2     1    14 1   
     3     1    15 1   
     4     2     8 1   
     5     2    17 2   
     6     2    18 1   
     7     3     4 2   
     8     3    17 1   
     9     3    22 1   
    10     4     9 1   
    11     4    18 1   
    12     5     7 2   
    13     5    32 1   
    14     6    20 2   
    15     6    21 1   
    16     6    33 1   
    17     7    19 1   
    18     7    34 1   
    19     8    11 ar  
    20     8    27 ar  
    21     9    35 1   
    22     9    36 1   
    23     9    37 1   
    24    10    13 ar  
    25    10    24 ar  
    26    10    38 1   
    27    11    29 ar  
    28    11    39 1   
    29    12    27 ar  
    30    12    30 ar  
    31    12    40 1   
    32    13    31 ar  
    33    13    41 1   
    34    14    16 1   
    35    14    21 2   
    36    15    19 1   
    37    15    23 2   
    38    16    20 1   
    39    16    24 1   
    40    19    25 1   
    41    21    42 1   
    42    22    25 1   
    43    22    43 1   
    44    22    44 1   
    45    24    26 ar  
    46    25    45 1   
    47    25    46 1   
    48    26    28 ar  
    49    26    47 1   
    50    27    48 1   
    51    28    31 ar  
    52    28    49 1   
    53    29    30 ar  
    54    29    50 1   
    55    30    51 1   
    56    31    52 1   
@<TRIPOS>SUBSTRUCTURE
     1 IV4         1 TEMP              0 ****  ****    0 ROOT
