@<TRIPOS>MOLECULE
IV5
   86    87     1     0     0
SMALL
bcc


@<TRIPOS>ATOM
      1 C10        -26.3520    18.0050    -3.9140 ca         1 IV5      -0.077300
      2 C13        -28.5210    19.7580    -3.7090 ca         1 IV5      -0.123000
      3 C15        -27.6400    17.6070    -4.2590 ca         1 IV5      -0.123000
      4 C17        -30.2730    16.5310    -4.8560 c3         1 IV5      -0.040200
      5 C20        -29.2710    13.9740    -7.6310 c3         1 IV5      -0.070400
      6 C21        -29.2970    12.4520    -7.7010 c3         1 IV5      -0.104400
      7 C22        -28.5870    11.8080    -8.9000 c3         1 IV5       0.160800
      8 C24        -29.1550    12.3120   -10.2190 c3         1 IV5      -0.100100
      9 C26        -30.9950    18.9140    -5.0710 ce         1 IV5      -0.120000
     10 C28        -33.2030    19.4910    -6.0590 cf         1 IV5      -0.058200
     11 C01        -26.9610    16.0170   -10.5590 c3         1 IV5      -0.102600
     12 C02        -25.4670    16.3260   -10.4480 c3         1 IV5       0.161800
     13 C03        -25.0520    17.2310   -11.6020 c3         1 IV5      -0.102600
     14 C05        -25.1420    17.0300    -9.1190 c3         1 IV5      -0.103400
     15 C06        -25.3350    16.2030    -7.8530 c3         1 IV5      -0.076400
     16 C07        -25.1050    17.0260    -6.5910 c3         1 IV5      -0.078400
     17 C08        -25.2030    16.2020    -5.3140 c3         1 IV5      -0.070400
     18 C09        -25.1950    17.0440    -4.0360 c3         1 IV5      -0.029100
     19 C11        -26.1660    19.3040    -3.4560 ca         1 IV5      -0.125000
     20 C12        -27.2520    20.1650    -3.3380 ca         1 IV5      -0.128000
     21 C14        -28.7400    18.4660    -4.2050 ca         1 IV5      -0.044800
     22 C16        -30.0620    18.0140    -4.6930 cf         1 IV5      -0.046400
     23 C18        -29.8400    16.0170    -6.2350 c3         1 IV5      -0.077400
     24 C19        -29.8360    14.4980    -6.3170 c3         1 IV5      -0.078400
     25 C23        -27.0790    12.0560    -8.8490 c3         1 IV5      -0.100100
     26 C27        -32.3020    18.6020    -5.6030 ce         1 IV5      -0.124000
     27 C29        -34.5580    19.0610    -6.5430 c6         1 IV5      -0.079200
     28 C30        -35.6730    19.8010    -5.8020 c6         1 IV5       0.154100
     29 C32        -35.4620    21.3040    -5.8950 c6         1 IV5      -0.065400
     30 C33        -34.0860    21.7300    -5.3840 c6         1 IV5       0.188300
     31 C35        -33.0030    20.9530    -6.1060 cf         1 IV5      -0.122200
     32 C36        -32.0040    21.5300    -6.7690 c2         1 IV5      -0.200000
     33 O04        -24.7030    15.1350   -10.5930 oh         1 IV5      -0.597800
     34 O25        -28.8370    10.4050    -8.8800 oh         1 IV5      -0.597800
     35 O31        -35.7070    19.4570    -4.4330 oh         1 IV5      -0.596800
     36 O34        -33.9830    23.1220    -5.5360 oh         1 IV5      -0.593800
     37 H1         -29.3440    20.4530    -3.5960 ha         1 IV5       0.131000
     38 H2         -27.7790    16.5920    -4.6060 ha         1 IV5       0.132000
     39 H3         -31.3220    16.2720    -4.6960 hc         1 IV5       0.046700
     40 H4         -29.7250    15.9910    -4.0800 hc         1 IV5       0.046700
     41 H5         -29.8380    14.3980    -8.4650 hc         1 IV5       0.039200
     42 H6         -28.2470    14.3450    -7.7410 hc         1 IV5       0.039200
     43 H7         -30.3400    12.1170    -7.7030 hc         1 IV5       0.043700
     44 H8         -28.8470    12.0500    -6.7840 hc         1 IV5       0.043700
     45 H9         -30.2390    12.1870   -10.2610 hc         1 IV5       0.040867
     46 H10        -28.9340    13.3700   -10.3590 hc         1 IV5       0.040867
     47 H11        -28.7170    11.7720   -11.0600 hc         1 IV5       0.040867
     48 H12        -30.7590    19.9690    -4.9990 ha         1 IV5       0.128000
     49 H13        -27.3030    15.3520    -9.7630 hc         1 IV5       0.041367
     50 H14        -27.5550    16.9300   -10.5000 hc         1 IV5       0.041367
     51 H15        -27.1840    15.5340   -11.5120 hc         1 IV5       0.041367
     52 H16        -23.9820    17.4450   -11.5700 hc         1 IV5       0.041367
     53 H17        -25.2810    16.7720   -12.5660 hc         1 IV5       0.041367
     54 H18        -25.5830    18.1820   -11.5500 hc         1 IV5       0.041367
     55 H19        -24.1040    17.3780    -9.1550 hc         1 IV5       0.048700
     56 H20        -25.7610    17.9310    -9.0560 hc         1 IV5       0.048700
     57 H21        -26.3460    15.7850    -7.8170 hc         1 IV5       0.035200
     58 H22        -24.6510    15.3470    -7.8530 hc         1 IV5       0.035200
     59 H23        -24.1210    17.5050    -6.6340 hc         1 IV5       0.044200
     60 H24        -25.8360    17.8410    -6.5670 hc         1 IV5       0.044200
     61 H25        -26.1050    15.5820    -5.3440 hc         1 IV5       0.037700
     62 H26        -24.3670    15.4990    -5.2700 hc         1 IV5       0.037700
     63 H27        -25.1960    16.3730    -3.1720 hc         1 IV5       0.048200
     64 H28        -24.2590    17.6060    -3.9770 hc         1 IV5       0.048200
     65 H29        -25.1730    19.6440    -3.1840 ha         1 IV5       0.129000
     66 H30        -27.1040    21.1680    -2.9580 ha         1 IV5       0.130000
     67 H31        -28.8400    16.3920    -6.4730 hc         1 IV5       0.044200
     68 H32        -30.5040    16.4330    -6.9980 hc         1 IV5       0.044200
     69 H33        -30.8540    14.1190    -6.1720 hc         1 IV5       0.037700
     70 H34        -29.2420    14.0950    -5.4890 hc         1 IV5       0.037700
     71 H35        -26.6510    11.6820    -7.9150 hc         1 IV5       0.040867
     72 H36        -26.5790    11.5530    -9.6780 hc         1 IV5       0.040867
     73 H37        -26.8400    13.1180    -8.9150 hc         1 IV5       0.040867
     74 H38        -32.5990    17.5590    -5.6290 ha         1 IV5       0.120000
     75 H39        -34.6540    19.2910    -7.6100 hc         1 IV5       0.053200
     76 H40        -34.6840    17.9790    -6.4430 hc         1 IV5       0.053200
     77 H41        -36.6280    19.5540    -6.2860 h1         1 IV5       0.035700
     78 H42        -35.5630    21.6050    -6.9420 hc         1 IV5       0.063200
     79 H43        -36.2410    21.8250    -5.3330 hc         1 IV5       0.063200
     80 H44        -34.0170    21.4560    -4.3210 h1         1 IV5       0.054700
     81 H45        -31.8940    22.6050    -6.8300 ha         1 IV5       0.120000
     82 H46        -31.2640    20.9370    -7.2910 ha         1 IV5       0.120000
     83 H47        -25.0070    14.4940    -9.9420 ho         1 IV5       0.399000
     84 H48        -28.4940    10.0540    -8.0510 ho         1 IV5       0.399000
     85 H49        -35.7480    18.4980    -4.3590 ho         1 IV5       0.403000
     86 H50        -33.2140    23.4280    -5.0440 ho         1 IV5       0.406000
@<TRIPOS>BOND
     1     1     3 ar  
     2     1    18 1   
     3     1    19 ar  
     4     2    20 ar  
     5     2    21 ar  
     6     2    37 1   
     7     3    21 ar  
     8     3    38 1   
     9     4    22 1   
    10     4    23 1   
    11     4    39 1   
    12     4    40 1   
    13     5     6 1   
    14     5    24 1   
    15     5    41 1   
    16     5    42 1   
    17     6     7 1   
    18     6    43 1   
    19     6    44 1   
    20     7     8 1   
    21     7    25 1   
    22     7    34 1   
    23     8    45 1   
    24     8    46 1   
    25     8    47 1   
    26     9    22 2   
    27     9    26 1   
    28     9    48 1   
    29    10    26 2   
    30    10    27 1   
    31    10    31 1   
    32    11    12 1   
    33    11    49 1   
    34    11    50 1   
    35    11    51 1   
    36    12    13 1   
    37    12    14 1   
    38    12    33 1   
    39    13    52 1   
    40    13    53 1   
    41    13    54 1   
    42    14    15 1   
    43    14    55 1   
    44    14    56 1   
    45    15    16 1   
    46    15    57 1   
    47    15    58 1   
    48    16    17 1   
    49    16    59 1   
    50    16    60 1   
    51    17    18 1   
    52    17    61 1   
    53    17    62 1   
    54    18    63 1   
    55    18    64 1   
    56    19    20 ar  
    57    19    65 1   
    58    20    66 1   
    59    21    22 1   
    60    23    24 1   
    61    23    67 1   
    62    23    68 1   
    63    24    69 1   
    64    24    70 1   
    65    25    71 1   
    66    25    72 1   
    67    25    73 1   
    68    26    74 1   
    69    27    28 1   
    70    27    75 1   
    71    27    76 1   
    72    28    29 1   
    73    28    35 1   
    74    28    77 1   
    75    29    30 1   
    76    29    78 1   
    77    29    79 1   
    78    30    31 1   
    79    30    36 1   
    80    30    80 1   
    81    31    32 2   
    82    32    81 1   
    83    32    82 1   
    84    33    83 1   
    85    34    84 1   
    86    35    85 1   
    87    36    86 1   
@<TRIPOS>SUBSTRUCTURE
     1 IV5         1 TEMP              0 ****  ****    0 ROOT
