@<TRIPOS>MOLECULE
IV5
   86    87     1     0     0
SMALL
No Charge or Current Charge


@<TRIPOS>ATOM
      1 C10        -26.1510    18.2740    -3.6640 ca         1 IV5      -0.077300
      2 C13        -28.5500    19.7030    -3.2590 ca         1 IV5      -0.105000
      3 C15        -27.3690    17.8100    -4.2100 ca         1 IV5      -0.105000
      4 C17        -30.0090    16.5360    -4.7360 c3         1 IV5      -0.040200
      5 C20        -29.5720    13.9110    -7.6720 c3         1 IV5      -0.070400
      6 C21        -29.5770    12.3610    -7.7330 c3         1 IV5      -0.104400
      7 C22        -29.4490    11.7290    -9.1510 c3         1 IV5       0.184000
      8 C24        -30.6600    12.0670   -10.0520 c3         1 IV5      -0.100100
      9 C26        -30.8650    18.8990    -5.0320 ce         1 IV5      -0.170000
     10 C28        -33.1040    19.3800    -6.1270 cf         1 IV5      -0.058200
     11 C01        -26.0820    15.2700   -10.3200 c3         1 IV5      -0.102600
     12 C02        -25.0070    16.3840   -10.3210 c3         1 IV5       0.185000
     13 C03        -25.1870    17.2930   -11.5580 c3         1 IV5      -0.102600
     14 C05        -25.0380    17.2390    -9.0200 c3         1 IV5      -0.103400
     15 C06        -24.8360    16.4720    -7.6860 c3         1 IV5      -0.076400
     16 C07        -24.8620    17.4020    -6.4540 c3         1 IV5      -0.078400
     17 C08        -24.7100    16.6340    -5.1190 c3         1 IV5      -0.070400
     18 C09        -24.8260    17.5240    -3.8550 c3         1 IV5      -0.029100
     19 C11        -26.1560    19.4560    -2.9010 ca         1 IV5      -0.107000
     20 C12        -27.3490    20.1650    -2.6980 ca         1 IV5      -0.110000
     21 C14        -28.5800    18.5190    -4.0270 ca         1 IV5      -0.044800
     22 C16        -29.8600    18.0570    -4.6370 cf         1 IV5      -0.046400
     23 C18        -29.7520    15.9920    -6.1620 c3         1 IV5      -0.077400
     24 C19        -29.7740    14.4500    -6.2380 c3         1 IV5      -0.078400
     25 C23        -28.1250    12.1200    -9.8480 c3         1 IV5      -0.100100
     26 C27        -32.1700    18.5250    -5.6120 ce         1 IV5      -0.174000
     27 C29        -34.4520    18.8310    -6.6360 c6         1 IV5      -0.079200
     28 C30        -35.6620    19.6350    -6.0990 c6         1 IV5       0.177300
     29 C32        -35.4670    21.1480    -6.3520 c6         1 IV5      -0.065400
     30 C33        -34.1470    21.6690    -5.7350 c6         1 IV5       0.211500
     31 C35        -32.9470    20.8340    -6.2520 cf         1 IV5      -0.122200
     32 C36        -31.8460    21.3910    -6.8190 c2         1 IV5      -0.300000
     33 O04        -23.7260    15.7630   -10.4320 oh         1 IV5      -0.660000
     34 O25        -29.4370    10.3110    -8.9810 oh         1 IV5      -0.660000
     35 O31        -35.8540    19.3820    -4.7010 oh         1 IV5      -0.659000
     36 O34        -34.0310    23.0740    -5.9900 oh         1 IV5      -0.656000
     37 H1         -29.4620    20.2650    -3.0760 ha         1 IV5       0.113000
     38 H2         -27.3690    16.9000    -4.7980 ha         1 IV5       0.114000
     39 H3         -31.0110    16.2280    -4.4130 hc         1 IV5       0.046700
     40 H4         -29.3380    16.0300    -4.0320 hc         1 IV5       0.046700
     41 H5         -30.3670    14.3120    -8.3110 hc         1 IV5       0.039200
     42 H6         -28.6200    14.2930    -8.0620 hc         1 IV5       0.039200
     43 H7         -30.5040    11.9990    -7.2710 hc         1 IV5       0.043700
     44 H8         -28.7580    11.9910    -7.1020 hc         1 IV5       0.043700
     45 H9         -31.6030    11.8070    -9.5560 hc         1 IV5       0.040867
     46 H10        -30.6860    13.1350   -10.2980 hc         1 IV5       0.040867
     47 H11        -30.6090    11.5120   -10.9970 hc         1 IV5       0.040867
     48 H12        -30.6910    19.9680    -4.9230 ha         1 IV5       0.178000
     49 H13        -25.8990    14.5320    -9.5300 hc         1 IV5       0.041367
     50 H14        -27.0800    15.6960   -10.1660 hc         1 IV5       0.041367
     51 H15        -26.0880    14.7330   -11.2770 hc         1 IV5       0.041367
     52 H16        -24.4110    18.0670   -11.5930 hc         1 IV5       0.041367
     53 H17        -25.1260    16.7110   -12.4860 hc         1 IV5       0.041367
     54 H18        -26.1640    17.7910   -11.5350 hc         1 IV5       0.041367
     55 H19        -24.2680    18.0170    -9.0920 hc         1 IV5       0.048700
     56 H20        -25.9990    17.7660    -8.9730 hc         1 IV5       0.048700
     57 H21        -25.6280    15.7220    -7.5690 hc         1 IV5       0.035200
     58 H22        -23.8800    15.9340    -7.7040 hc         1 IV5       0.035200
     59 H23        -24.0560    18.1410    -6.5380 hc         1 IV5       0.044200
     60 H24        -25.8050    17.9620    -6.4570 hc         1 IV5       0.044200
     61 H25        -25.4450    15.8220    -5.0680 hc         1 IV5       0.037700
     62 H26        -23.7270    16.1480    -5.1080 hc         1 IV5       0.037700
     63 H27        -24.6500    16.8920    -2.9760 hc         1 IV5       0.048200
     64 H28        -23.9980    18.2440    -3.8740 hc         1 IV5       0.048200
     65 H29        -25.2330    19.8270    -2.4620 ha         1 IV5       0.111000
     66 H30        -27.3440    21.0760    -2.1040 ha         1 IV5       0.112000
     67 H31        -28.7820    16.3540    -6.5260 hc         1 IV5       0.044200
     68 H32        -30.5100    16.3980    -6.8430 hc         1 IV5       0.044200
     69 H33        -30.7330    14.0850    -5.8490 hc         1 IV5       0.037700
     70 H34        -28.9880    14.0470    -5.5860 hc         1 IV5       0.037700
     71 H35        -27.2620    11.9270    -9.1980 hc         1 IV5       0.040867
     72 H36        -27.9880    11.5490   -10.7750 hc         1 IV5       0.040867
     73 H37        -28.1240    13.1830   -10.1120 hc         1 IV5       0.040867
     74 H38        -32.4200    17.4650    -5.6060 ha         1 IV5       0.170000
     75 H39        -34.4510    18.8750    -7.7340 hc         1 IV5       0.053200
     76 H40        -34.5670    17.7690    -6.3800 hc         1 IV5       0.053200
     77 H41        -36.5580    19.3100    -6.6490 h1         1 IV5       0.035700
     78 H42        -35.4650    21.3380    -7.4340 hc         1 IV5       0.063200
     79 H43        -36.3190    21.7050    -5.9410 hc         1 IV5       0.063200
     80 H44        -34.2050    21.5110    -4.6470 h1         1 IV5       0.054700
     81 H45        -31.7290    22.4670    -6.9400 ha         1 IV5       0.170000
     82 H46        -31.0380    20.7660    -7.2000 ha         1 IV5       0.170000
     83 H47        -23.5840    15.2630    -9.6010 ho         1 IV5       0.438000
     84 H48        -28.6660    10.0990    -8.4130 ho         1 IV5       0.438000
     85 H49        -35.9510    18.4100    -4.6020 ho         1 IV5       0.442000
     86 H50        -33.2190    23.3660    -5.5230 ho         1 IV5       0.445000
@<TRIPOS>BOND
     1     1     3 ar  
     2     1    18 1   
     3     1    19 ar  
     4     2    20 ar  
     5     2    21 ar  
     6     2    37 1   
     7     3    21 ar  
     8     3    38 1   
     9     4    22 1   
    10     4    23 1   
    11     4    39 1   
    12     4    40 1   
    13     5     6 1   
    14     5    24 1   
    15     5    41 1   
    16     5    42 1   
    17     6     7 1   
    18     6    43 1   
    19     6    44 1   
    20     7     8 1   
    21     7    25 1   
    22     7    34 1   
    23     8    45 1   
    24     8    46 1   
    25     8    47 1   
    26     9    22 2   
    27     9    26 1   
    28     9    48 1   
    29    10    26 2   
    30    10    27 1   
    31    10    31 1   
    32    11    12 1   
    33    11    49 1   
    34    11    50 1   
    35    11    51 1   
    36    12    13 1   
    37    12    14 1   
    38    12    33 1   
    39    13    52 1   
    40    13    53 1   
    41    13    54 1   
    42    14    15 1   
    43    14    55 1   
    44    14    56 1   
    45    15    16 1   
    46    15    57 1   
    47    15    58 1   
    48    16    17 1   
    49    16    59 1   
    50    16    60 1   
    51    17    18 1   
    52    17    61 1   
    53    17    62 1   
    54    18    63 1   
    55    18    64 1   
    56    19    20 ar  
    57    19    65 1   
    58    20    66 1   
    59    21    22 1   
    60    23    24 1   
    61    23    67 1   
    62    23    68 1   
    63    24    69 1   
    64    24    70 1   
    65    25    71 1   
    66    25    72 1   
    67    25    73 1   
    68    26    74 1   
    69    27    28 1   
    70    27    75 1   
    71    27    76 1   
    72    28    29 1   
    73    28    35 1   
    74    28    77 1   
    75    29    30 1   
    76    29    78 1   
    77    29    79 1   
    78    30    31 1   
    79    30    36 1   
    80    30    80 1   
    81    31    32 2   
    82    32    81 1   
    83    32    82 1   
    84    33    83 1   
    85    34    84 1   
    86    35    85 1   
    87    36    86 1   
@<TRIPOS>SUBSTRUCTURE
     1 IV5         1 TEMP              0 ****  ****    0 ROOT
