@<TRIPOS>MOLECULE
IV6
   30    32     1     0     0
SMALL
No Charge or Current Charge


@<TRIPOS>ATOM
      1 C10        -23.4340    30.2610   -23.4340 ca         1 IV6      -0.053200
      2 C13        -26.6400    32.3780   -23.1660 c          1 IV6       0.715600
      3 C17        -23.0490    32.0540   -21.8310 ca         1 IV6      -0.137000
      4 C02        -25.0070    26.1460   -23.9910 ca         1 IV6       0.270000
      5 C04        -23.0110    25.7720   -25.0580 ca         1 IV6       0.447900
      6 C06        -22.3300    23.4860   -26.0160 c3         1 IV6       0.229100
      7 C07        -22.6740    27.1240   -24.8380 ca         1 IV6      -0.106600
      8 C08        -23.5840    27.9190   -24.1790 ca         1 IV6       0.136500
      9 C11        -24.7460    30.7360   -23.6360 ca         1 IV6      -0.056000
     10 C12        -25.2250    31.8720   -22.9410 ca         1 IV6      -0.127600
     11 C16        -24.3570    32.5250   -22.0350 ca         1 IV6      -0.077000
     12 C18        -22.5870    30.9270   -22.5280 ca         1 IV6      -0.144000
     13 C19        -21.7180    29.0660   -24.7240 cc         1 IV6       0.411700
     14 N03        -24.1890    25.2770   -24.6310 nb         1 IV6      -0.301000
     15 N05        -22.1370    24.9150   -25.7160 nu         1 IV6      -0.921100
     16 N09        -22.9780    29.1400   -24.1300 na         1 IV6      -0.148100
     17 N20        -21.5010    27.8180   -25.1930 nd         1 IV6      -0.581100
     18 N21        -24.7680    27.4540   -23.7370 nb         1 IV6      -0.157000
     19 O14        -27.3510    31.7890   -23.9680 o          1 IV6      -0.710000
     20 O15        -27.0180    33.3570   -22.5380 o          1 IV6      -0.710000
     21 H171       -22.3930    32.5650   -21.1300 ha         1 IV6       0.093000
     22 H062       -21.4570    23.0840   -26.5480 h1         1 IV6       0.038367
     23 H063       -22.4650    22.9120   -25.0890 h1         1 IV6       0.038367
     24 H061       -23.2170    23.3410   -26.6480 h1         1 IV6       0.038367
     25 H111       -25.3940    30.2220   -24.3430 ha         1 IV6       0.153000
     26 H161       -24.6940    33.4010   -21.4840 ha         1 IV6       0.133000
     27 H181       -21.5740    30.5710   -22.3530 ha         1 IV6       0.094000
     28 H191       -21.0410    29.9100   -24.7800 h5         1 IV6       0.067800
     29 H051       -21.2630    25.3580   -26.0070 hn         1 IV6       0.512000
     30 Cl01       -26.5430    25.5060   -23.4310 cl         1 IV6      -0.149000
@<TRIPOS>BOND
     1     1     9 ar  
     2     1    12 ar  
     3     1    16 1   
     4     2    10 1   
     5     2    19 1   
     6     2    20 1   
     7     3    11 ar  
     8     3    12 ar  
     9     3    21 1   
    10     4    14 ar  
    11     4    18 ar  
    12     4    30 1   
    13     5     7 ar  
    14     5    14 ar  
    15     5    15 1   
    16     6    15 1   
    17     6    22 1   
    18     6    23 1   
    19     6    24 1   
    20     7     8 ar  
    21     7    17 1   
    22     8    16 1   
    23     8    18 ar  
    24     9    10 ar  
    25     9    25 1   
    26    10    11 ar  
    27    11    26 1   
    28    12    27 1   
    29    13    16 1   
    30    13    17 2   
    31    13    28 1   
    32    15    29 1   
@<TRIPOS>SUBSTRUCTURE
     1 IV6         1 TEMP              0 ****  ****    0 ROOT
