@<TRIPOS>MOLECULE
IV6
   30    32     1     0     0
SMALL
abcg2


@<TRIPOS>ATOM
      1 C10        -23.4160    30.2610   -23.3600 ca         1 IV6      -0.053200
      2 C13        -26.6610    32.2580   -23.2170 c          1 IV6       0.715600
      3 C17        -23.0920    32.0940   -21.8590 ca         1 IV6      -0.137000
      4 C02        -24.8760    26.2240   -23.9920 ca         1 IV6       0.270000
      5 C04        -22.9290    25.7850   -25.1010 ca         1 IV6       0.447900
      6 C06        -22.4980    23.5620   -26.0260 c3         1 IV6       0.229100
      7 C07        -22.5630    27.1230   -24.8470 ca         1 IV6      -0.106600
      8 C08        -23.4800    27.8890   -24.1480 ca         1 IV6       0.136500
      9 C11        -24.7200    30.6730   -23.5970 ca         1 IV6      -0.056000
     10 C12        -25.2240    31.8010   -22.9580 ca         1 IV6      -0.127600
     11 C16        -24.3940    32.5100   -22.0930 ca         1 IV6      -0.077000
     12 C18        -22.5960    30.9590   -22.4830 ca         1 IV6      -0.144000
     13 C19        -21.6830    29.0270   -24.6460 cc         1 IV6       0.411700
     14 N03        -24.1190    25.3670   -24.6490 nb         1 IV6      -0.301000
     15 N05        -22.1470    24.9370   -25.7600 nu         1 IV6      -0.921100
     16 N09        -22.9020    29.1200   -24.0230 na         1 IV6      -0.148100
     17 N20        -21.4470    27.8540   -25.1500 nd         1 IV6      -0.581100
     18 N21        -24.6650    27.4780   -23.6890 nb         1 IV6      -0.157000
     19 O14        -27.3460    31.5320   -23.9610 o          1 IV6      -0.710000
     20 O15        -27.0100    33.3140   -22.6570 o          1 IV6      -0.710000
     21 H171       -22.4570    32.6470   -21.1790 ha         1 IV6       0.093000
     22 H062       -21.6760    23.1020   -26.5650 h1         1 IV6       0.038367
     23 H063       -22.6640    23.0040   -25.1050 h1         1 IV6       0.038367
     24 H061       -23.3980    23.4890   -26.6380 h1         1 IV6       0.038367
     25 H111       -25.3490    30.1280   -24.2860 ha         1 IV6       0.153000
     26 H161       -24.7740    33.3940   -21.5990 ha         1 IV6       0.133000
     27 H181       -21.5880    30.6190   -22.2840 ha         1 IV6       0.094000
     28 H191       -21.0230    29.8800   -24.7020 h5         1 IV6       0.067800
     29 H051       -21.2570    25.2790   -26.0840 hn         1 IV6       0.512000
     30 CL01       -26.3930    25.5770   -23.4450 cl         1 IV6      -0.149000
@<TRIPOS>BOND
     1     1     9 ar  
     2     1    12 ar  
     3     1    16 1   
     4     2    10 1   
     5     2    19 1   
     6     2    20 1   
     7     3    11 ar  
     8     3    12 ar  
     9     3    21 1   
    10     4    14 ar  
    11     4    18 ar  
    12     4    30 1   
    13     5     7 ar  
    14     5    14 ar  
    15     5    15 1   
    16     6    15 1   
    17     6    22 1   
    18     6    23 1   
    19     6    24 1   
    20     7     8 ar  
    21     7    17 1   
    22     8    16 1   
    23     8    18 ar  
    24     9    10 ar  
    25     9    25 1   
    26    10    11 ar  
    27    11    26 1   
    28    12    27 1   
    29    13    16 1   
    30    13    17 2   
    31    13    28 1   
    32    15    29 1   
@<TRIPOS>SUBSTRUCTURE
     1 IV6         1 TEMP              0 ****  ****    0 ROOT
