@<TRIPOS>MOLECULE
IV7
   51    54     1     0     0
SMALL
No Charge or Current Charge


@<TRIPOS>ATOM
      1 C12         -3.1960    -1.7470     0.7700 ca         1 IV7      -0.061000
      2 C13         -4.5400    -1.7560     0.3760 ca         1 IV7      -0.149000
      3 C6           1.0180     1.1230    -0.4200 ca         1 IV7      -0.106000
      4 C15         -4.1270     0.1830    -1.0260 ca         1 IV7      -0.147000
      5 C4           2.7660     2.1170     0.9200 ca         1 IV7       0.393900
      6 C5           2.3150     1.0620     0.0940 ca         1 IV7      -0.085000
      7 C23          3.1190    -0.1130    -0.2400 cc         1 IV7      -0.125000
      8 C11         -2.2980    -0.7800     0.2690 ca         1 IV7      -0.141600
      9 C10         -2.7570     0.2180    -0.6500 ca         1 IV7      -0.046300
     10 C1           0.1440     2.1250     0.0330 ca         1 IV7       0.007100
     11 C14         -4.9990    -0.7880    -0.5180 ca         1 IV7       0.182000
     12 C22          2.6490    -1.3810     0.0080 cd         1 IV7      -0.163300
     13 C24          4.4900    -0.2380    -0.5290 cc         1 IV7       0.276300
     14 C2           0.6960     3.1020     0.9040 ca         1 IV7       0.603900
     15 C17         -0.9000    -0.8420     0.8340 c          1 IV7       0.619700
     16 C29          1.4100    -1.8740     0.7620 c3         1 IV7       0.164300
     17 C9          -1.8050     1.2680    -1.2910 c3         1 IV7       0.216600
     18 C28          5.4010     0.9350    -0.7590 c3         1 IV7      -0.119400
     19 C18         -2.4440     2.2360    -2.3110 c3         1 IV7      -0.095100
     20 N3           1.9620     3.1330     1.3250 nb         1 IV7      -0.728000
     21 N25          4.8960    -1.4870    -0.6060 nd         1 IV7      -0.525800
     22 N26          3.7490    -2.2040    -0.2890 na         1 IV7       0.135800
     23 N20          0.0650    -1.6420     0.1660 n          1 IV7      -0.402800
     24 N8           0.0010     4.1270     1.4280 nv         1 IV7      -1.041900
     25 O19         -0.6470    -0.2790     1.8910 o          1 IV7      -0.576100
     26 O7          -1.2130     2.1300    -0.2890 os         1 IV7      -0.347100
     27 F16         -6.2950    -0.7910    -0.8990 f          1 IV7      -0.174000
     28 H12         -2.8460    -2.4940     1.4800 ha         1 IV7       0.128000
     29 H13         -5.2230    -2.5060     0.7670 ha         1 IV7       0.138000
     30 H6           0.7240     0.3610    -1.1260 ha         1 IV7       0.117000
     31 H15         -4.5460     0.9020    -1.7220 ha         1 IV7       0.138000
     32 H4           3.7780     2.1170     1.3210 h4         1 IV7       0.021100
     33 H9          -1.0610     0.7180    -1.8710 h1         1 IV7       0.050700
     34 H291         1.5020    -2.9550     0.9280 h1         1 IV7       0.069700
     35 H292         1.4520    -1.4280     1.7630 h1         1 IV7       0.069700
     36 H281         4.8650     1.7620    -1.2380 hc         1 IV7       0.049033
     37 H282         5.8140     1.2960     0.1900 hc         1 IV7       0.049033
     38 H283         6.2390     0.6600    -1.4090 hc         1 IV7       0.049033
     39 H81N        -1.0080     4.0330     1.4190 hn         1 IV7       0.473000
     40 H82N         0.4160     4.5720     2.2360 hn         1 IV7       0.473000
     41 H181        -3.2290     2.8420    -1.8430 hc         1 IV7       0.051033
     42 H182        -1.6850     2.9170    -2.7130 hc         1 IV7       0.051033
     43 H183        -2.8740     1.6850    -3.1550 hc         1 IV7       0.051033
     44 H271         2.9160    -4.0920    -0.7240 h1         1 IV7       0.056367
     45 H272         4.7020    -4.0450    -0.7110 h1         1 IV7       0.056367
     46 H273         3.7980    -3.9890     0.8310 h1         1 IV7       0.056367
     47 H211        -0.6670    -1.6690    -1.8230 h1         1 IV7       0.041700
     48 H212         0.6210    -2.8550    -1.4860 h1         1 IV7       0.041700
     49 H213        -1.0300    -3.1340    -0.8620 h1         1 IV7       0.041700
     50 C27          3.7950    -3.6740    -0.2190 c3         1 IV7       0.069900
     51 C21         -0.2730    -2.3680    -1.0750 c3         1 IV7       0.088300
@<TRIPOS>BOND
     1     1     2 ar  
     2     1     8 ar  
     3     1    28 1   
     4     2    11 ar  
     5     2    29 1   
     6     3     6 ar  
     7     3    10 ar  
     8     3    30 1   
     9     4     9 ar  
    10     4    11 ar  
    11     4    31 1   
    12     5     6 ar  
    13     5    20 ar  
    14     5    32 1   
    15     6     7 1   
    16     7    12 2   
    17     7    13 1   
    18     8     9 ar  
    19     8    15 1   
    20     9    17 1   
    21    10    14 ar  
    22    10    26 1   
    23    11    27 1   
    24    12    16 1   
    25    12    22 1   
    26    13    18 1   
    27    13    21 2   
    28    14    20 ar  
    29    14    24 1   
    30    15    23 1   
    31    15    25 2   
    32    16    23 1   
    33    16    34 1   
    34    16    35 1   
    35    17    19 1   
    36    17    26 1   
    37    17    33 1   
    38    18    36 1   
    39    18    37 1   
    40    18    38 1   
    41    19    41 1   
    42    19    42 1   
    43    19    43 1   
    44    21    22 1   
    45    22    50 1   
    46    23    51 1   
    47    24    39 1   
    48    24    40 1   
    49    44    50 1   
    50    45    50 1   
    51    46    50 1   
    52    47    51 1   
    53    48    51 1   
    54    49    51 1   
@<TRIPOS>SUBSTRUCTURE
     1 IV7         1 TEMP              0 ****  ****    0 ROOT
