@<TRIPOS>MOLECULE
IV7
   51    54     1     0     0
SMALL
abcg2


@<TRIPOS>ATOM
      1 C12         -3.0080    -1.2760     1.0920 ca         1 IV7      -0.061000
      2 C13         -4.3710    -1.1390     0.9000 ca         1 IV7      -0.149000
      3 C6           1.1110     1.2310    -0.5230 ca         1 IV7      -0.106000
      4 C15         -3.9020     0.4850    -0.8180 ca         1 IV7      -0.147000
      5 C4           2.2900     1.7710     1.4550 ca         1 IV7       0.393900
      6 C5           2.2110     1.0070     0.3100 ca         1 IV7      -0.085000
      7 C23          3.0780    -0.1340     0.0040 cc         1 IV7      -0.125000
      8 C11         -2.0750    -0.5660     0.3350 ca         1 IV7      -0.141600
      9 C10         -2.5270     0.3330    -0.6440 ca         1 IV7      -0.046300
     10 C1           0.1100     2.0800    -0.1360 ca         1 IV7       0.007100
     11 C14         -4.7920    -0.2410    -0.0570 ca         1 IV7       0.182000
     12 C22          2.6700    -1.4530     0.0960 cd         1 IV7      -0.163300
     13 C24          4.3830    -0.1950    -0.5160 cc         1 IV7       0.276300
     14 C2           0.2910     2.8250     1.0540 ca         1 IV7       0.603900
     15 C17         -0.6610    -0.7920     0.8240 c          1 IV7       0.619700
     16 C29          1.4220    -2.0270     0.6990 c3         1 IV7       0.164300
     17 C9          -1.5930     1.1390    -1.5340 c3         1 IV7       0.216600
     18 C28          5.2930     0.9440    -0.8220 c3         1 IV7      -0.119400
     19 C18         -2.2220     1.7030    -2.7930 c3         1 IV7      -0.095100
     20 N3           1.3760     2.6790     1.7970 nb         1 IV7      -0.728000
     21 N25          4.7420    -1.4510    -0.7200 nd         1 IV7      -0.525800
     22 N26          3.6990    -2.1980    -0.3550 na         1 IV7       0.135800
     23 N20          0.1700    -1.5820     0.1070 n          1 IV7      -0.402800
     24 N8          -0.6360     3.7540     1.4300 nv         1 IV7      -1.041900
     25 O19         -0.3690    -0.3520     1.9240 o          1 IV7      -0.576100
     26 O7          -1.0540     2.2520    -0.8100 os         1 IV7      -0.347100
     27 F16         -6.1060    -0.0700    -0.2620 f          1 IV7      -0.174000
     28 H12         -2.6630    -1.9660     1.8520 ha         1 IV7       0.128000
     29 H13         -5.0780    -1.7100     1.4860 ha         1 IV7       0.138000
     30 H6           1.0560     0.6700    -1.4470 ha         1 IV7       0.117000
     31 H15         -4.2970     1.1660    -1.5600 ha         1 IV7       0.138000
     32 H4           3.1150     1.6390     2.1470 h4         1 IV7       0.021100
     33 H9          -0.7880     0.4840    -1.8660 h1         1 IV7       0.050700
     34 H291         1.4430    -3.1180     0.6410 h1         1 IV7       0.069700
     35 H292         1.4040    -1.7750     1.7580 h1         1 IV7       0.069700
     36 H281         4.7860     1.7030    -1.4190 hc         1 IV7       0.049033
     37 H282         5.6410     1.4330     0.0890 hc         1 IV7       0.049033
     38 H283         6.1690     0.6060    -1.3740 hc         1 IV7       0.049033
     39 H81N        -1.5730     3.6430     1.0810 hn         1 IV7       0.473000
     40 H82N        -0.5880     4.0520     2.3910 hn         1 IV7       0.473000
     41 H181        -2.9770     2.4590    -2.5810 hc         1 IV7       0.051033
     42 H182        -1.4470     2.1650    -3.4030 hc         1 IV7       0.051033
     43 H183        -2.6810     0.9100    -3.3820 hc         1 IV7       0.051033
     44 H271         2.8930    -4.0820    -0.7880 h1         1 IV7       0.056367
     45 H272         4.6210    -3.8920    -1.0770 h1         1 IV7       0.056367
     46 H273         4.0200    -4.0560     0.5800 h1         1 IV7       0.056367
     47 H211        -1.1700    -1.9480    -1.4690 h1         1 IV7       0.041700
     48 H212         0.5040    -1.6670    -1.9690 h1         1 IV7       0.041700
     49 H213         0.0420    -3.1950    -1.2120 h1         1 IV7       0.041700
     50 C27          3.8080    -3.6380    -0.4040 c3         1 IV7       0.069900
     51 C21         -0.1300    -2.1170    -1.2020 c3         1 IV7       0.088300
@<TRIPOS>BOND
     1     1     2 ar  
     2     1     8 ar  
     3     1    28 1   
     4     2    11 ar  
     5     2    29 1   
     6     3     6 ar  
     7     3    10 ar  
     8     3    30 1   
     9     4     9 ar  
    10     4    11 ar  
    11     4    31 1   
    12     5     6 ar  
    13     5    20 ar  
    14     5    32 1   
    15     6     7 1   
    16     7    12 2   
    17     7    13 1   
    18     8     9 ar  
    19     8    15 1   
    20     9    17 1   
    21    10    14 ar  
    22    10    26 1   
    23    11    27 1   
    24    12    16 1   
    25    12    22 1   
    26    13    18 1   
    27    13    21 2   
    28    14    20 ar  
    29    14    24 1   
    30    15    23 1   
    31    15    25 2   
    32    16    23 1   
    33    16    34 1   
    34    16    35 1   
    35    17    19 1   
    36    17    26 1   
    37    17    33 1   
    38    18    36 1   
    39    18    37 1   
    40    18    38 1   
    41    19    41 1   
    42    19    42 1   
    43    19    43 1   
    44    21    22 1   
    45    22    50 1   
    46    23    51 1   
    47    24    39 1   
    48    24    40 1   
    49    44    50 1   
    50    45    50 1   
    51    46    50 1   
    52    47    51 1   
    53    48    51 1   
    54    49    51 1   
@<TRIPOS>SUBSTRUCTURE
     1 IV7         1 TEMP              0 ****  ****    0 ROOT
