@<TRIPOS>MOLECULE
IV8
   47    51     1     0     0
SMALL
abcg2


@<TRIPOS>ATOM
      1 C02         30.0070   -46.4690   -12.8660 cc         1 IV8       0.513300
      2 N03         30.6800   -45.8120   -13.7890 nd         1 IV8      -0.577100
      3 C04         30.6680   -47.0580   -11.6690 c3         1 IV8      -0.067700
      4 C05         30.3050   -48.5290   -11.4960 c3         1 IV8      -0.104700
      5 C06         30.9420   -49.1280   -10.2890 cc         1 IV8       0.456800
      6 N09         31.4530   -50.6220    -8.7520 nc         1 IV8      -0.618800
      7 C13         34.3450   -48.2330    -6.0090 c5         1 IV8      -0.096900
      8 C15         33.3410   -50.3210    -6.6330 c5         1 IV8       0.243800
      9 C17         28.5160   -45.8960   -14.2210 cd         1 IV8      -0.056000
     10 C19         27.4920   -44.9010   -16.1280 cc         1 IV8      -0.075000
     11 C20         27.3540   -45.6170   -14.9880 cd         1 IV8      -0.084000
     12 C21         28.7730   -44.4340   -16.5670 ca         1 IV8      -0.078000
     13 C22         29.9190   -44.7190   -15.8030 ca         1 IV8      -0.002000
     14 C23         31.1850   -44.2830   -16.1980 ca         1 IV8      -0.101000
     15 C24         31.3050   -43.5560   -17.3620 ca         1 IV8      -0.085000
     16 C25         30.1800   -43.2570   -18.1400 ca         1 IV8      -0.116000
     17 C26         28.9350   -43.6900   -17.7470 ca         1 IV8      -0.077000
     18 N01         28.6800   -46.5500   -13.0850 nc         1 IV8      -0.398300
     19 N07         31.7970   -48.5250    -9.4850 nd         1 IV8      -0.761000
     20 C08         32.0810   -49.4770    -8.5620 cd         1 IV8       0.812900
     21 N10         30.7250   -50.3730    -9.8670 na         1 IV8      -0.065700
     22 N11         32.9260   -49.2620    -7.5320 nh         1 IV8      -0.800300
     23 C12         33.6700   -48.0300    -7.3610 c5         1 IV8       0.243800
     24 C14         34.5840   -49.7400    -5.9600 c5         1 IV8      -0.096900
     25 N18         29.7240   -45.4460   -14.6500 na         1 IV8       0.278400
     26 H27         31.7470   -46.9370   -11.7630 hc         1 IV8       0.079700
     27 H28         30.3620   -46.4970   -10.7830 hc         1 IV8       0.079700
     28 H30         29.2190   -48.6330   -11.4280 hc         1 IV8       0.065700
     29 H29         30.6070   -49.0910   -12.3840 hc         1 IV8       0.065700
     30 H33         35.2600   -47.6500    -5.9130 hc         1 IV8       0.050450
     31 H34         33.6710   -47.9300    -5.2040 hc         1 IV8       0.050450
     32 H38         32.5590   -50.5490    -5.9010 h1         1 IV8       0.047950
     33 H37         33.5570   -51.2450    -7.1740 h1         1 IV8       0.047950
     34 H39         29.2030   -51.7780    -9.6730 h1         1 IV8       0.054033
     35 H40         29.3170   -50.9990   -11.2540 h1         1 IV8       0.054033
     36 H41         30.5000   -52.2300   -10.7950 h1         1 IV8       0.054033
     37 H42         26.6260   -44.6690   -16.7350 ha         1 IV8       0.126000
     38 H43         26.3950   -45.9770   -14.6430 ha         1 IV8       0.147000
     39 H44         32.0520   -44.5140   -15.5960 ha         1 IV8       0.148000
     40 H45         32.2820   -43.2130   -17.6750 ha         1 IV8       0.122000
     41 H46         30.2910   -42.6840   -19.0510 ha         1 IV8       0.121000
     42 H47         28.0610   -43.4620   -18.3450 ha         1 IV8       0.120000
     43 H31         34.4120   -47.8880    -8.1560 h1         1 IV8       0.047950
     44 H32         33.0120   -47.1590    -7.3710 h1         1 IV8       0.047950
     45 H35         35.4760   -49.9990    -6.5350 hc         1 IV8       0.050450
     46 H36         34.7220   -50.1210    -4.9490 hc         1 IV8       0.050450
     47 C16         29.8920   -51.4040   -10.4270 c3         1 IV8       0.078900
@<TRIPOS>BOND
     1     1     2 2   
     2     1     3 1   
     3     1    18 1   
     4     2    25 1   
     5     3     4 1   
     6     3    26 1   
     7     3    27 1   
     8     4     5 1   
     9     4    28 1   
    10     4    29 1   
    11     5    19 2   
    12     5    21 1   
    13     6    20 2   
    14     6    21 1   
    15     7    23 1   
    16     7    24 1   
    17     7    30 1   
    18     7    31 1   
    19     8    22 1   
    20     8    24 1   
    21     8    32 1   
    22     8    33 1   
    23     9    11 1   
    24     9    18 2   
    25     9    25 1   
    26    10    11 2   
    27    10    12 1   
    28    10    37 1   
    29    11    38 1   
    30    12    13 ar  
    31    12    17 ar  
    32    13    14 ar  
    33    13    25 1   
    34    14    15 ar  
    35    14    39 1   
    36    15    16 ar  
    37    15    40 1   
    38    16    17 ar  
    39    16    41 1   
    40    17    42 1   
    41    19    20 1   
    42    20    22 1   
    43    21    47 1   
    44    22    23 1   
    45    23    43 1   
    46    23    44 1   
    47    24    45 1   
    48    24    46 1   
    49    34    47 1   
    50    35    47 1   
    51    36    47 1   
@<TRIPOS>SUBSTRUCTURE
     1 IV8         1 TEMP              0 ****  ****    0 ROOT
