@<TRIPOS>MOLECULE
IV8
   47    51     1     0     0
SMALL
No Charge or Current Charge


@<TRIPOS>ATOM
      1 C02         30.1820   -46.1280   -12.7640 cc         1 IV8       0.513300
      2 N03         30.7910   -45.9870   -13.9340 nd         1 IV8      -0.577100
      3 C04         30.8320   -46.8070   -11.5910 c3         1 IV8      -0.067700
      4 C05         30.5760   -48.3360   -11.5500 c3         1 IV8      -0.104700
      5 C06         31.2320   -49.0600   -10.3990 cc         1 IV8       0.456800
      6 N09         31.9520   -50.7730    -9.1130 nc         1 IV8      -0.618800
      7 C13         33.6390   -48.4380    -5.4390 c5         1 IV8      -0.096900
      8 C15         33.4280   -50.5130    -6.6320 c5         1 IV8       0.243800
      9 C17         28.6770   -45.1470   -13.8410 cd         1 IV8      -0.056000
     10 C19         27.4400   -44.0480   -15.5990 cc         1 IV8      -0.075000
     11 C20         27.4790   -44.5020   -14.2940 cd         1 IV8      -0.084000
     12 C21         28.6210   -44.2510   -16.4440 ca         1 IV8      -0.078000
     13 C22         29.7770   -44.8960   -15.9400 ca         1 IV8      -0.002000
     14 C23         30.8970   -45.0750   -16.7810 ca         1 IV8      -0.101000
     15 C24         30.8690   -44.6200   -18.1100 ca         1 IV8      -0.085000
     16 C25         29.7220   -43.9810   -18.6070 ca         1 IV8      -0.116000
     17 C26         28.6030   -43.7980   -17.7780 ca         1 IV8      -0.077000
     18 N01         28.9030   -45.6430   -12.6470 nc         1 IV8      -0.398300
     19 N07         31.8220   -48.4980    -9.3610 nd         1 IV8      -0.761000
     20 C08         32.2310   -49.5790    -8.6340 cd         1 IV8       0.812900
     21 N10         31.3020   -50.4350   -10.2590 na         1 IV8      -0.065700
     22 N11         32.9060   -49.3940    -7.4480 nh         1 IV8      -0.800300
     23 C12         33.2020   -48.0600    -6.8780 c5         1 IV8       0.243800
     24 C14         34.4060   -49.7640    -5.6890 c5         1 IV8      -0.096900
     25 N18         29.8000   -45.3480   -14.6150 na         1 IV8       0.278400
     26 H27         31.9120   -46.6210   -11.6220 hc         1 IV8       0.079700
     27 H28         30.4680   -46.3510   -10.6620 hc         1 IV8       0.079700
     28 H30         29.4940   -48.5140   -11.5080 hc         1 IV8       0.065700
     29 H29         30.9260   -48.7750   -12.4920 hc         1 IV8       0.065700
     30 H33         34.2610   -47.6650    -4.9760 hc         1 IV8       0.050450
     31 H34         32.7700   -48.5960    -4.7900 hc         1 IV8       0.050450
     32 H38         32.6190   -51.0010    -6.0700 h1         1 IV8       0.047950
     33 H37         33.9450   -51.2750    -7.2320 h1         1 IV8       0.047950
     34 H39         29.7080   -51.2770   -11.3580 h1         1 IV8       0.054033
     35 H40         31.3170   -51.4200   -12.1260 h1         1 IV8       0.054033
     36 H41         30.8940   -52.4600   -10.7340 h1         1 IV8       0.054033
     37 H42         26.5470   -43.5560   -15.9730 ha         1 IV8       0.126000
     38 H43         26.6270   -44.3750   -13.6320 ha         1 IV8       0.147000
     39 H44         31.7910   -45.5690   -16.4060 ha         1 IV8       0.148000
     40 H45         31.7350   -44.7610   -18.7520 ha         1 IV8       0.122000
     41 H46         29.6990   -43.6280   -19.6360 ha         1 IV8       0.121000
     42 H47         27.7190   -43.3020   -18.1730 ha         1 IV8       0.120000
     43 H31         34.0140   -47.5680    -7.4310 h1         1 IV8       0.047950
     44 H32         32.3280   -47.3920    -6.8760 h1         1 IV8       0.047950
     45 H35         35.3690   -49.5820    -6.1800 hc         1 IV8       0.050450
     46 H36         34.6050   -50.3220    -4.7670 hc         1 IV8       0.050450
     47 C16         30.7730   -51.4620   -11.1740 c3         1 IV8       0.078900
@<TRIPOS>BOND
     1     1     2 2   
     2     1     3 1   
     3     1    18 1   
     4     2    25 1   
     5     3     4 1   
     6     3    26 1   
     7     3    27 1   
     8     4     5 1   
     9     4    28 1   
    10     4    29 1   
    11     5    19 2   
    12     5    21 1   
    13     6    20 2   
    14     6    21 1   
    15     7    23 1   
    16     7    24 1   
    17     7    30 1   
    18     7    31 1   
    19     8    22 1   
    20     8    24 1   
    21     8    32 1   
    22     8    33 1   
    23     9    11 1   
    24     9    18 2   
    25     9    25 1   
    26    10    11 2   
    27    10    12 1   
    28    10    37 1   
    29    11    38 1   
    30    12    13 ar  
    31    12    17 ar  
    32    13    14 ar  
    33    13    25 1   
    34    14    15 ar  
    35    14    39 1   
    36    15    16 ar  
    37    15    40 1   
    38    16    17 ar  
    39    16    41 1   
    40    17    42 1   
    41    19    20 1   
    42    20    22 1   
    43    21    47 1   
    44    22    23 1   
    45    23    43 1   
    46    23    44 1   
    47    24    45 1   
    48    24    46 1   
    49    34    47 1   
    50    35    47 1   
    51    36    47 1   
@<TRIPOS>SUBSTRUCTURE
     1 IV8         1 TEMP              0 ****  ****    0 ROOT
