@<TRIPOS>MOLECULE
IVA
   16    15     1     0     0
SMALL
No Charge or Current Charge


@<TRIPOS>ATOM
      1 CA          24.0180    10.0940   -13.5900 c3         1 IVA      -0.202400
      2 CB          24.1510    10.4210   -12.0730 c3         1 IVA      -0.044700
      3 CG1         24.1410     9.1310   -11.2200 c3         1 IVA      -0.077600
      4 CG2         23.0790    11.4190   -11.5720 c3         1 IVA      -0.077600
      5 C           24.2580    11.3360   -14.4720 c          1 IVA       0.717000
      6 O           23.2910    11.9920   -14.8300 o          1 IVA      -0.744000
      7 OXT         25.4100    11.6190   -14.7650 o          1 IVA      -0.744000
      8 HA1         24.8020     9.3530   -13.7920 hc         1 IVA       0.015200
      9 HA2         23.0030     9.7030   -13.7390 hc         1 IVA       0.015200
     10 HB          25.1300    10.8940   -11.9220 hc         1 IVA       0.057700
     11 HG11        24.2880     9.3670   -10.1590 hc         1 IVA       0.014367
     12 HG12        23.1860     8.6020   -11.3250 hc         1 IVA       0.014367
     13 HG13        24.9460     8.4530   -11.5280 hc         1 IVA       0.014367
     14 HG21        23.1990    11.6060   -10.4980 hc         1 IVA       0.014367
     15 HG22        23.1650    12.3830   -12.0860 hc         1 IVA       0.014367
     16 HG23        22.0690    11.0250   -11.7390 hc         1 IVA       0.014367
@<TRIPOS>BOND
     1     1     2 1   
     2     1     5 1   
     3     1     8 1   
     4     1     9 1   
     5     2     3 1   
     6     2     4 1   
     7     2    10 1   
     8     3    11 1   
     9     3    12 1   
    10     3    13 1   
    11     4    14 1   
    12     4    15 1   
    13     4    16 1   
    14     5     6 1   
    15     5     7 1   
@<TRIPOS>SUBSTRUCTURE
     1 IVA         1 TEMP              0 ****  ****    0 ROOT
