@<TRIPOS>MOLECULE
IVA
   16    15     1     0     0
SMALL
abcg2


@<TRIPOS>ATOM
      1 CA          23.9220    10.1640   -13.5420 c3         1 IVA      -0.202400
      2 CB          24.1930    10.4190   -12.0630 c3         1 IVA      -0.044700
      3 CG1         24.1220     9.1190   -11.2670 c3         1 IVA      -0.077600
      4 CG2         23.2230    11.4450   -11.4840 c3         1 IVA      -0.077600
      5 C           24.1990    11.3340   -14.5100 c          1 IVA       0.717000
      6 O           23.5990    11.2960   -15.6040 o          1 IVA      -0.744000
      7 OXT         25.0270    12.1950   -14.1480 o          1 IVA      -0.744000
      8 HA1         24.5470     9.3240   -13.8760 hc         1 IVA       0.015200
      9 HA2         22.8890     9.8220   -13.6720 hc         1 IVA       0.015200
     10 HB          25.2070    10.8180   -11.9690 hc         1 IVA       0.057700
     11 HG11        24.3510     9.2840   -10.2110 hc         1 IVA       0.014367
     12 HG12        23.1230     8.6790   -11.3210 hc         1 IVA       0.014367
     13 HG13        24.8290     8.3790   -11.6460 hc         1 IVA       0.014367
     14 HG21        23.4340    11.6430   -10.4310 hc         1 IVA       0.014367
     15 HG22        23.2790    12.3940   -12.0180 hc         1 IVA       0.014367
     16 HG23        22.1930    11.0850   -11.5490 hc         1 IVA       0.014367
@<TRIPOS>BOND
     1     1     2 1   
     2     1     5 1   
     3     1     8 1   
     4     1     9 1   
     5     2     3 1   
     6     2     4 1   
     7     2    10 1   
     8     3    11 1   
     9     3    12 1   
    10     3    13 1   
    11     4    14 1   
    12     4    15 1   
    13     4    16 1   
    14     5     6 1   
    15     5     7 1   
@<TRIPOS>SUBSTRUCTURE
     1 IVA         1 TEMP              0 ****  ****    0 ROOT
