@<TRIPOS>MOLECULE
IVE
   62    64     1     0     0
SMALL
bcc


@<TRIPOS>ATOM
      1 C1          25.9840   -49.4080   -13.6030 ca         1 IVE       0.151600
      2 C2          26.6400   -48.3820   -12.9100 ca         1 IVE      -0.181500
      3 C3          23.8900   -48.2970   -13.0950 ca         1 IVE      -0.080000
      4 C4          24.5860   -49.3560   -13.6600 ca         1 IVE      -0.181500
      5 C5          24.5520   -47.2480   -12.4690 ca         1 IVE      -0.152300
      6 C6          25.9360   -47.3280   -12.3620 ca         1 IVE      -0.080000
      7 N7          26.7270   -50.4320   -14.1920 nh         1 IVE      -0.638000
      8 C8          23.7990   -46.0510   -11.9360 c3         1 IVE       0.139400
      9 C9          22.9030   -45.4810   -13.0360 c          1 IVE       0.696100
     10 O10         22.9590   -46.3610   -10.8600 os         1 IVE      -0.383600
     11 C11         23.6640   -46.7070    -9.6870 c3         1 IVE       0.136400
     12 O12         21.6920   -45.6050   -13.0210 o          1 IVE      -0.568100
     13 N13         23.5350   -44.8520   -14.0490 ns         1 IVE      -0.468300
     14 N14         24.9070   -44.7250   -14.1070 n7         1 IVE      -0.557200
     15 C15         25.5060   -45.5150   -15.1680 c3         1 IVE       0.175100
     16 C16         27.0080   -45.5670   -15.0770 ca         1 IVE       0.013700
     17 C17         27.6960   -46.2110   -16.1000 ca         1 IVE      -0.253500
     18 C18         29.0760   -46.3690   -16.0250 ca         1 IVE       0.201600
     19 C19         29.7600   -45.8610   -14.9160 ca         1 IVE      -0.112900
     20 C20         29.0760   -45.1960   -13.9000 ca         1 IVE       0.201600
     21 C21         27.6920   -45.0470   -13.9900 ca         1 IVE      -0.253500
     22 O22         29.8140   -46.9910   -16.9520 os         1 IVE      -0.299400
     23 BR23        31.6230   -46.0780   -14.7910 br         1 IVE      -0.060100
     24 O24         29.8090   -44.7440   -12.8740 os         1 IVE      -0.299400
     25 C25         29.1690   -47.5440   -18.0840 c3         1 IVE       0.123700
     26 C26         29.1510   -44.1190   -11.7880 c3         1 IVE       0.123700
     27 C27         22.6790   -46.8620    -8.5500 c3         1 IVE      -0.091100
     28 C28         27.8240   -50.0100   -15.0560 c6         1 IVE       0.154800
     29 C29         28.7130   -51.1890   -15.3950 c6         1 IVE       0.124400
     30 O30         27.9820   -52.2390   -15.9850 os         1 IVE      -0.400600
     31 C31         26.9590   -52.6680   -15.1180 c6         1 IVE       0.124400
     32 C32         25.9990   -51.5430   -14.7750 c6         1 IVE       0.154800
     33 H1          27.7170   -48.4000   -12.8000 ha         1 IVE       0.136000
     34 H2          22.8100   -48.2850   -13.1850 ha         1 IVE       0.136000
     35 H3          24.0230   -50.1250   -14.1710 ha         1 IVE       0.136000
     36 H4          26.4790   -46.5410   -11.8540 ha         1 IVE       0.136000
     37 H5          24.5340   -45.2860   -11.6480 h1         1 IVE       0.058700
     38 H6          24.2240   -47.6410    -9.8270 h1         1 IVE       0.022200
     39 H7          24.4020   -45.9300    -9.4440 h1         1 IVE       0.022200
     40 H8          22.9720   -44.5420   -14.8350 hn         1 IVE       0.308500
     41 H9          25.1390   -43.7440   -14.2060 hn         1 IVE       0.369800
     42 H10         25.1270   -46.5350   -15.0710 h1         1 IVE       0.058200
     43 H11         25.2140   -45.1650   -16.1680 h1         1 IVE       0.058200
     44 H12         27.1410   -46.6050   -16.9410 ha         1 IVE       0.144500
     45 H13         27.1420   -44.5580   -13.2000 ha         1 IVE       0.144500
     46 H14         29.9510   -47.9950   -18.6890 h1         1 IVE       0.045533
     47 H15         28.4490   -48.3180   -17.8050 h1         1 IVE       0.045533
     48 H16         28.6600   -46.7810   -18.6760 h1         1 IVE       0.045533
     49 H17         29.9250   -43.8700   -11.0670 h1         1 IVE       0.045533
     50 H18         28.6430   -43.2010   -12.0920 h1         1 IVE       0.045533
     51 H19         28.4270   -44.7860   -11.3140 h1         1 IVE       0.045533
     52 H20         23.2100   -47.1360    -7.6390 hc         1 IVE       0.044033
     53 H21         22.1410   -45.9330    -8.3590 hc         1 IVE       0.044033
     54 H22         21.9500   -47.6460    -8.7590 hc         1 IVE       0.044033
     55 H23         27.4370   -49.5550   -15.9810 h1         1 IVE       0.046700
     56 H24         28.4350   -49.2550   -14.5630 h1         1 IVE       0.046700
     57 H25         29.4800   -50.8780   -16.1070 h1         1 IVE       0.054700
     58 H26         29.2180   -51.5370   -14.4830 h1         1 IVE       0.054700
     59 H27         26.4160   -53.4710   -15.6200 h1         1 IVE       0.054700
     60 H28         27.3850   -53.0770   -14.1910 h1         1 IVE       0.054700
     61 H29         25.2710   -51.9260   -14.0580 h1         1 IVE       0.046700
     62 H30         25.4470   -51.2420   -15.6780 h1         1 IVE       0.046700
@<TRIPOS>BOND
     1     1     2 ar  
     2     1     4 ar  
     3     1     7 1   
     4     2     6 ar  
     5     2    33 1   
     6     3     4 ar  
     7     3     5 ar  
     8     3    34 1   
     9     4    35 1   
    10     5     6 ar  
    11     5     8 1   
    12     6    36 1   
    13     7    28 1   
    14     7    32 1   
    15     8     9 1   
    16     8    10 1   
    17     8    37 1   
    18     9    12 2   
    19     9    13 1   
    20    10    11 1   
    21    11    27 1   
    22    11    38 1   
    23    11    39 1   
    24    13    14 1   
    25    13    40 1   
    26    14    15 1   
    27    14    41 1   
    28    15    16 1   
    29    15    42 1   
    30    15    43 1   
    31    16    17 ar  
    32    16    21 ar  
    33    17    18 ar  
    34    17    44 1   
    35    18    19 ar  
    36    18    22 1   
    37    19    20 ar  
    38    19    23 1   
    39    20    21 ar  
    40    20    24 1   
    41    21    45 1   
    42    22    25 1   
    43    24    26 1   
    44    25    46 1   
    45    25    47 1   
    46    25    48 1   
    47    26    49 1   
    48    26    50 1   
    49    26    51 1   
    50    27    52 1   
    51    27    53 1   
    52    27    54 1   
    53    28    29 1   
    54    28    55 1   
    55    28    56 1   
    56    29    30 1   
    57    29    57 1   
    58    29    58 1   
    59    30    31 1   
    60    31    32 1   
    61    31    59 1   
    62    31    60 1   
    63    32    61 1   
    64    32    62 1   
@<TRIPOS>SUBSTRUCTURE
     1 IVE         1 TEMP              0 ****  ****    0 ROOT
