@<TRIPOS>MOLECULE
IVE
   62    64     1     0     0
SMALL
No Charge or Current Charge


@<TRIPOS>ATOM
      1 C1          26.0450   -49.1150   -13.5540 ca         1 IVE       0.290000
      2 C2          26.6080   -48.1610   -12.6890 ca         1 IVE      -0.163500
      3 C3          23.8680   -48.0340   -13.2670 ca         1 IVE      -0.062000
      4 C4          24.6630   -49.0510   -13.8260 ca         1 IVE      -0.163500
      5 C5          24.4460   -47.0620   -12.4280 ca         1 IVE      -0.152300
      6 C6          25.8190   -47.1430   -12.1290 ca         1 IVE      -0.062000
      7 N7          26.8700   -50.1080   -14.1360 nh         1 IVE      -0.776400
      8 C8          23.6120   -45.9010   -11.8670 c3         1 IVE       0.162600
      9 C9          22.7820   -45.1560   -12.9760 c          1 IVE       0.629100
     10 O10         22.7590   -46.4130   -10.8070 os         1 IVE      -0.430000
     11 C11         23.4440   -46.8770    -9.6300 c3         1 IVE       0.159600
     12 O12         21.5550   -45.1220   -12.9870 o          1 IVE      -0.568100
     13 N13         23.4860   -44.4960   -13.9880 ns         1 IVE      -0.401300
     14 N14         24.9130   -44.5000   -14.1400 n7         1 IVE      -0.612400
     15 C15         25.4240   -45.3090   -15.2710 c3         1 IVE       0.175100
     16 C16         26.9280   -45.6150   -15.2210 ca         1 IVE       0.013700
     17 C17         27.5020   -46.3040   -16.3040 ca         1 IVE      -0.235500
     18 C18         28.8660   -46.6600   -16.2940 ca         1 IVE       0.201600
     19 C19         29.6630   -46.3270   -15.1850 ca         1 IVE      -0.112900
     20 C20         29.1050   -45.6350   -14.0940 ca         1 IVE       0.201600
     21 C21         27.7410   -45.2760   -14.1180 ca         1 IVE      -0.235500
     22 O22         29.4510   -47.3550   -17.3360 os         1 IVE      -0.322600
     23 Br23        31.5160   -46.8460   -15.1470 br         1 IVE      -0.060100
     24 O24         29.9230   -45.3400   -13.0190 os         1 IVE      -0.322600
     25 C25         28.7140   -47.7640   -18.5020 c3         1 IVE       0.146900
     26 C26         29.4390   -44.6750   -11.8400 c3         1 IVE       0.146900
     27 C27         22.3770   -47.3120    -8.6140 c3         1 IVE      -0.091100
     28 C28         28.0920   -49.6960   -14.9030 c6         1 IVE       0.154800
     29 C29         29.1170   -50.8570   -15.0640 c6         1 IVE       0.147600
     30 O30         28.4750   -52.0400   -15.5940 os         1 IVE      -0.447000
     31 C31         27.4060   -52.5160   -14.7420 c6         1 IVE       0.147600
     32 C32         26.3050   -51.4260   -14.5730 c6         1 IVE       0.154800
     33 H1          27.6670   -48.2020   -12.4520 ha         1 IVE       0.118000
     34 H2          22.8060   -47.9930   -13.5020 ha         1 IVE       0.118000
     35 H3          24.1990   -49.7720   -14.4900 ha         1 IVE       0.118000
     36 H4          26.2820   -46.4060   -11.4770 ha         1 IVE       0.118000
     37 H5          24.2930   -45.1430   -11.4580 h1         1 IVE       0.058700
     38 H6          24.0930   -47.7330    -9.8600 h1         1 IVE       0.022200
     39 H7          24.0590   -46.0780    -9.1960 h1         1 IVE       0.022200
     40 H8          22.8910   -44.0360   -14.6750 hn         1 IVE       0.308500
     41 H9          25.3340   -43.5560   -14.1400 hn         1 IVE       0.425000
     42 H10         24.9010   -46.2740   -15.2940 h1         1 IVE       0.058200
     43 H11         25.2000   -44.8060   -16.2210 h1         1 IVE       0.058200
     44 H12         26.8650   -46.5680   -17.1430 ha         1 IVE       0.126500
     45 H13         27.3020   -44.7550   -13.2750 ha         1 IVE       0.126500
     46 H14         29.3720   -48.3000   -19.1970 h1         1 IVE       0.045533
     47 H15         27.8910   -48.4360   -18.2270 h1         1 IVE       0.045533
     48 H16         28.3010   -46.8940   -19.0270 h1         1 IVE       0.045533
     49 H17         30.2530   -44.5480   -11.1150 h1         1 IVE       0.045533
     50 H18         29.0450   -43.6810   -12.0850 h1         1 IVE       0.045533
     51 H19         28.6450   -45.2610   -11.3590 h1         1 IVE       0.045533
     52 H20         22.8540   -47.6730    -7.6950 hc         1 IVE       0.044033
     53 H21         21.7240   -46.4700    -8.3550 hc         1 IVE       0.044033
     54 H22         21.7610   -48.1220    -9.0230 hc         1 IVE       0.044033
     55 H23         27.7970   -49.3460   -15.9020 h1         1 IVE       0.046700
     56 H24         28.6020   -48.8590   -14.4050 h1         1 IVE       0.046700
     57 H25         29.9240   -50.5480   -15.7440 h1         1 IVE       0.054700
     58 H26         29.5670   -51.0950   -14.0900 h1         1 IVE       0.054700
     59 H27         26.9690   -53.4220   -15.1830 h1         1 IVE       0.054700
     60 H28         27.8200   -52.7830   -13.7580 h1         1 IVE       0.054700
     61 H29         25.5720   -51.7870   -13.8360 h1         1 IVE       0.046700
     62 H30         25.7780   -51.3090   -15.5310 h1         1 IVE       0.046700
@<TRIPOS>BOND
     1     1     2 ar  
     2     1     4 ar  
     3     1     7 1   
     4     2     6 ar  
     5     2    33 1   
     6     3     4 ar  
     7     3     5 ar  
     8     3    34 1   
     9     4    35 1   
    10     5     6 ar  
    11     5     8 1   
    12     6    36 1   
    13     7    28 1   
    14     7    32 1   
    15     8     9 1   
    16     8    10 1   
    17     8    37 1   
    18     9    12 2   
    19     9    13 1   
    20    10    11 1   
    21    11    27 1   
    22    11    38 1   
    23    11    39 1   
    24    13    14 1   
    25    13    40 1   
    26    14    15 1   
    27    14    41 1   
    28    15    16 1   
    29    15    42 1   
    30    15    43 1   
    31    16    17 ar  
    32    16    21 ar  
    33    17    18 ar  
    34    17    44 1   
    35    18    19 ar  
    36    18    22 1   
    37    19    20 ar  
    38    19    23 1   
    39    20    21 ar  
    40    20    24 1   
    41    21    45 1   
    42    22    25 1   
    43    24    26 1   
    44    25    46 1   
    45    25    47 1   
    46    25    48 1   
    47    26    49 1   
    48    26    50 1   
    49    26    51 1   
    50    27    52 1   
    51    27    53 1   
    52    27    54 1   
    53    28    29 1   
    54    28    55 1   
    55    28    56 1   
    56    29    30 1   
    57    29    57 1   
    58    29    58 1   
    59    30    31 1   
    60    31    32 1   
    61    31    59 1   
    62    31    60 1   
    63    32    61 1   
    64    32    62 1   
@<TRIPOS>SUBSTRUCTURE
     1 IVE         1 TEMP              0 ****  ****    0 ROOT
