@<TRIPOS>MOLECULE
IVG
   37    37     1     0     0
SMALL
bcc


@<TRIPOS>ATOM
      1 O8         -27.7070    32.3970    34.4600 oh         1 IVG      -0.571800
      2 O4         -22.3010    37.8170    36.6990 oh         1 IVG      -0.597800
      3 O1         -25.5720    34.1960    34.3070 os         1 IVG      -0.362600
      4 O6         -26.7310    33.4900    36.9580 oh         1 IVG      -0.585800
      5 O5         -24.4080    34.8970    36.0970 os         1 IVG      -0.462600
      6 O9         -25.0440    31.0820    32.5840 oh         1 IVG      -0.608800
      7 O3         -23.8070    38.5720    34.3680 oh         1 IVG      -0.599800
      8 O2         -24.7150    36.3820    32.8250 oh         1 IVG      -0.583800
      9 C4         -23.4360    37.1010    36.2770 c6         1 IVG       0.079100
     10 C5         -23.3140    35.6200    36.6260 c6         1 IVG       0.116400
     11 C1         -24.4880    34.9480    34.6870 c6         1 IVG       0.346900
     12 C9         -25.3580    32.7930    34.2120 c3         1 IVG       0.151100
     13 C10        -25.3080    32.4560    32.7270 c3         1 IVG       0.118400
     14 C6         -26.4450    32.0330    34.9650 c3         1 IVG       0.130100
     15 C7         -26.3740    32.2230    36.4870 c3         1 IVG       0.013100
     16 C8         -27.2730    31.2450    37.2170 c          1 IVG       0.582900
     17 C2         -24.6840    36.3870    34.2270 c6         1 IVG       0.133100
     18 C3         -23.5450    37.2480    34.7660 c6         1 IVG       0.111100
     19 H5         -28.2790    31.6250    34.4710 ho         1 IVG       0.409000
     20 HO4        -22.3460    37.9350    37.6530 ho         1 IVG       0.415000
     21 H11        -25.9990    34.1000    36.7930 ho         1 IVG       0.437000
     22 H13        -25.0780    30.8630    31.6490 ho         1 IVG       0.413000
     23 HO3        -23.0210    39.1030    34.5290 ho         1 IVG       0.426000
     24 HO2        -24.7200    37.2970    32.5230 ho         1 IVG       0.427000
     25 H52        -24.3530    37.4980    36.7360 h1         1 IVG       0.062700
     26 H51        -23.3260    35.4700    37.7060 h1         1 IVG       0.057200
     27 H9         -22.3640    35.2230    36.2410 h1         1 IVG       0.057200
     28 H1         -23.5470    34.5530    34.2610 h2         1 IVG       0.035700
     29 H6         -24.3970    32.5180    34.6660 h1         1 IVG       0.050700
     30 H8         -24.5200    33.0690    32.2690 h1         1 IVG       0.042700
     31 H7         -26.2560    32.7460    32.2580 h1         1 IVG       0.042700
     32 H10        -26.2340    30.9720    34.7850 h1         1 IVG       0.067700
     33 H12        -25.3520    31.9440    36.8040 h1         1 IVG       0.044700
     34 H14        -27.5870    31.5930    38.2190 h4         1 IVG       0.006200
     35 H2         -25.6320    36.7560    34.6520 h1         1 IVG       0.073700
     36 H3         -22.6040    36.8860    34.3210 h1         1 IVG       0.050700
     37 O7         -27.6110    30.1710    36.7930 o          1 IVG      -0.526100
@<TRIPOS>BOND
     1     1    14 1   
     2     1    19 1   
     3     2     9 1   
     4     2    20 1   
     5     3    11 1   
     6     3    12 1   
     7     4    15 1   
     8     4    21 1   
     9     5    10 1   
    10     5    11 1   
    11     6    13 1   
    12     6    22 1   
    13     7    18 1   
    14     7    23 1   
    15     8    17 1   
    16     8    24 1   
    17     9    10 1   
    18     9    18 1   
    19     9    25 1   
    20    10    26 1   
    21    10    27 1   
    22    11    17 1   
    23    11    28 1   
    24    12    13 1   
    25    12    14 1   
    26    12    29 1   
    27    13    30 1   
    28    13    31 1   
    29    14    15 1   
    30    14    32 1   
    31    15    16 1   
    32    15    33 1   
    33    16    34 1   
    34    16    37 2   
    35    17    18 1   
    36    17    35 1   
    37    18    36 1   
@<TRIPOS>SUBSTRUCTURE
     1 IVG         1 TEMP              0 ****  ****    0 ROOT
