@<TRIPOS>MOLECULE
IVG
   37    37     1     0     0
SMALL
No Charge or Current Charge


@<TRIPOS>ATOM
      1 O8         -27.7970    32.3840    34.4250 oh         1 IVG      -0.694000
      2 O4         -22.2590    37.8900    36.6960 oh         1 IVG      -0.720000
      3 O1         -25.5820    34.1220    34.1910 os         1 IVG      -0.409000
      4 O6         -26.5920    33.5720    36.8810 oh         1 IVG      -0.648000
      5 O5         -24.2990    34.8390    35.9730 os         1 IVG      -0.509000
      6 O9         -24.6530    30.8680    32.7010 oh         1 IVG      -0.731000
      7 O3         -23.8690    38.7460    34.4660 oh         1 IVG      -0.662000
      8 O2         -24.9940    36.7050    32.7840 oh         1 IVG      -0.706000
      9 C4         -23.3850    37.1110    36.2370 c6         1 IVG       0.102300
     10 C5         -23.1730    35.5880    36.4870 c6         1 IVG       0.139600
     11 C1         -24.4880    34.9750    34.5480 c6         1 IVG       0.393300
     12 C9         -25.3320    32.6970    34.2190 c3         1 IVG       0.174300
     13 C10        -25.1150    32.2330    32.7530 c3         1 IVG       0.141600
     14 C6         -26.5120    31.9770    34.9560 c3         1 IVG       0.153300
     15 C7         -26.4620    32.1720    36.5120 c3         1 IVG       0.036300
     16 C8         -27.5040    31.2870    37.2520 c          1 IVG       0.582900
     17 C2         -24.7910    36.4730    34.1990 c6         1 IVG       0.156300
     18 C3         -23.6160    37.3520    34.7150 c6         1 IVG       0.134300
     19 H5         -28.4790    31.9860    35.0180 ho         1 IVG       0.508000
     20 HO4        -22.2240    37.8100    37.6800 ho         1 IVG       0.514000
     21 H11        -25.8570    34.0610    36.4250 ho         1 IVG       0.476000
     22 H13        -24.5410    30.6340    31.7480 ho         1 IVG       0.512000
     23 HO3        -23.2470    39.2230    35.0640 ho         1 IVG       0.465000
     24 HO2        -24.8640    37.6780    32.6700 ho         1 IVG       0.526000
     25 H52        -24.2950    37.4150    36.7760 h1         1 IVG       0.062700
     26 H51        -23.0830    35.3920    37.5650 h1         1 IVG       0.057200
     27 H9         -22.2500    35.2410    35.9980 h1         1 IVG       0.057200
     28 H1         -23.5800    34.6510    34.0170 h2         1 IVG       0.035700
     29 H6         -24.4090    32.4790    34.7750 h1         1 IVG       0.050700
     30 H8         -24.3780    32.8960    32.2790 h1         1 IVG       0.042700
     31 H7         -26.0590    32.3410    32.2000 h1         1 IVG       0.042700
     32 H10        -26.3780    30.9000    34.7790 h1         1 IVG       0.067700
     33 H12        -25.4830    31.8080    36.8520 h1         1 IVG       0.044700
     34 H14        -27.2340    31.0090    38.2950 h4         1 IVG       0.006200
     35 H2         -25.6980    36.7590    34.7530 h1         1 IVG       0.073700
     36 H3         -22.7020    37.0440    34.1840 h1         1 IVG       0.050700
     37 O7         -28.5530    30.8920    36.7450 o          1 IVG      -0.526100
@<TRIPOS>BOND
     1     1    14 1   
     2     1    19 1   
     3     2     9 1   
     4     2    20 1   
     5     3    11 1   
     6     3    12 1   
     7     4    15 1   
     8     4    21 1   
     9     5    10 1   
    10     5    11 1   
    11     6    13 1   
    12     6    22 1   
    13     7    18 1   
    14     7    23 1   
    15     8    17 1   
    16     8    24 1   
    17     9    10 1   
    18     9    18 1   
    19     9    25 1   
    20    10    26 1   
    21    10    27 1   
    22    11    17 1   
    23    11    28 1   
    24    12    13 1   
    25    12    14 1   
    26    12    29 1   
    27    13    30 1   
    28    13    31 1   
    29    14    15 1   
    30    14    32 1   
    31    15    16 1   
    32    15    33 1   
    33    16    34 1   
    34    16    37 2   
    35    17    18 1   
    36    17    35 1   
    37    18    36 1   
@<TRIPOS>SUBSTRUCTURE
     1 IVG         1 TEMP              0 ****  ****    0 ROOT
