@<TRIPOS>MOLECULE
IVH
   45    47     1     0     0
SMALL
No Charge or Current Charge


@<TRIPOS>ATOM
      1 S           -2.9420    -1.1470     0.0610 ss         1 IVH      -0.319300
      2 C1          -8.2450    -1.4340    -0.6520 c3         1 IVH      -0.089100
      3 N1          -2.1150     1.4060     0.3970 nb         1 IVH      -0.322000
      4 O1           4.0830    -0.3270     1.0000 os         1 IVH      -0.430000
      5 C2          -7.0710    -0.4680    -0.4050 c3         1 IVH      -0.073400
      6 N2          -0.4350    -0.3190     0.5080 nb         1 IVH      -0.201000
      7 O2           5.1350     1.6920    -0.9970 oh         1 IVH      -0.696000
      8 N3           1.8570     0.5200     0.9120 na         1 IVH      -0.286300
      9 O3           4.5270    -3.1000     0.1280 oh         1 IVH      -0.684000
     10 C4          -4.5370    -0.2160    -0.0540 c3         1 IVH       0.044600
     11 N4           1.2950     2.7600     1.0220 nc         1 IVH      -0.552100
     12 O4           1.8940    -2.9400     0.1170 oh         1 IVH      -0.669000
     13 C5          -1.7070     0.1170     0.3530 ca         1 IVH       0.302300
     14 C6          -1.1650     2.3220     0.6190 ca         1 IVH       0.465900
     15 C7           0.1850     1.9570     0.7890 ca         1 IVH      -0.112600
     16 C8           0.5020     0.6250     0.7240 ca         1 IVH       0.160500
     17 C9           2.2850     1.8490     1.0970 cd         1 IVH       0.408700
     18 C10          2.6800    -0.6910     0.9690 c5         1 IVH       0.312300
     19 C11          2.5220    -1.7030    -0.2340 c5         1 IVH       0.138300
     20 C12          4.0000    -1.9970    -0.6420 c5         1 IVH       0.099300
     21 C13          4.6720    -0.6350    -0.2880 c5         1 IVH       0.130300
     22 C14          4.4070     0.4990    -1.3310 c3         1 IVH       0.151600
     23 H1          -8.1040    -1.9860    -1.5890 hc         1 IVH       0.033033
     24 H1A         -8.3310    -2.1590     0.1670 hc         1 IVH       0.033033
     25 H1B         -9.1890    -0.8800    -0.7190 hc         1 IVH       0.033033
     26 H2          -7.0340     0.2640    -1.2220 hc         1 IVH       0.038700
     27 H2A         -7.2580     0.0930     0.5190 hc         1 IVH       0.038700
     28 HO2          4.9860     2.3370    -1.7270 ho         1 IVH       0.505000
     29 H3          -5.7460    -1.9170     0.5170 hc         1 IVH       0.050200
     30 H3A         -5.5210    -1.7460    -1.2250 hc         1 IVH       0.050200
     31 HO3          5.4780    -3.2080    -0.1160 ho         1 IVH       0.507000
     32 H4          -4.7010     0.3340     0.8820 h1         1 IVH       0.072200
     33 H4A         -4.4740     0.5060    -0.8780 h1         1 IVH       0.072200
     34 HO4          2.6740    -3.5220     0.3090 ho         1 IVH       0.511000
     35 HN5         -2.4820     3.8370     0.2480 hn         1 IVH       0.506000
     36 HN5A        -0.8640     4.3320     0.6110 hn         1 IVH       0.506000
     37 H9           3.3270     2.0810     1.2850 h5         1 IVH       0.060800
     38 H10          2.4150    -1.1860     1.9120 h2         1 IVH       0.131700
     39 H11          1.9820    -1.2260    -1.0640 h1         1 IVH       0.039700
     40 H12          4.0800    -2.2130    -1.7170 h1         1 IVH       0.048700
     41 H13          5.7590    -0.7430    -0.1720 h1         1 IVH       0.086700
     42 H14          3.3330     0.7140    -1.3990 h1         1 IVH       0.017200
     43 H14A         4.7270     0.1370    -2.3170 h1         1 IVH       0.017200
     44 N5          -1.5820     3.6140     0.6630 nv         1 IVH      -1.065900
     45 C3          -5.7080    -1.1860    -0.3000 c3         1 IVH      -0.070400
@<TRIPOS>BOND
     1     1    10 1   
     2     1    13 1   
     3     2     5 1   
     4     2    23 1   
     5     2    24 1   
     6     2    25 1   
     7     3    13 ar  
     8     3    14 ar  
     9     4    18 1   
    10     4    21 1   
    11     5    26 1   
    12     5    27 1   
    13     5    45 1   
    14     6    13 ar  
    15     6    16 ar  
    16     7    22 1   
    17     7    28 1   
    18     8    16 1   
    19     8    17 1   
    20     8    18 1   
    21     9    20 1   
    22     9    31 1   
    23    10    32 1   
    24    10    33 1   
    25    10    45 1   
    26    11    15 1   
    27    11    17 2   
    28    12    19 1   
    29    12    34 1   
    30    14    15 ar  
    31    14    44 1   
    32    15    16 ar  
    33    17    37 1   
    34    18    19 1   
    35    18    38 1   
    36    19    20 1   
    37    19    39 1   
    38    20    21 1   
    39    20    40 1   
    40    21    22 1   
    41    21    41 1   
    42    22    42 1   
    43    22    43 1   
    44    29    45 1   
    45    30    45 1   
    46    35    44 1   
    47    36    44 1   
@<TRIPOS>SUBSTRUCTURE
     1 IVH         1 TEMP              0 ****  ****    0 ROOT
