@<TRIPOS>MOLECULE
IVH
   45    47     1     0     0
SMALL
bcc


@<TRIPOS>ATOM
      1 S           -3.1370    -1.1350     0.3220 ss         1 IVH      -0.271400
      2 C1          -8.3610    -1.5560     0.5390 c3         1 IVH      -0.089100
      3 N1          -2.3810     1.3660    -0.1800 nb         1 IVH      -0.848000
      4 O1           3.1510    -0.4590     0.9290 os         1 IVH      -0.383600
      5 C2          -7.2100    -0.5620     0.4800 c3         1 IVH      -0.073400
      6 N2          -0.7080    -0.3300    -0.0280 nb         1 IVH      -0.727000
      7 O2           5.4780     0.7880     1.8440 oh         1 IVH      -0.573800
      8 N3           1.5210     0.5550    -0.3730 na         1 IVH      -0.257000
      9 O3           3.8560    -3.0720    -0.4710 oh         1 IVH      -0.561800
     10 C4          -4.7160    -0.2420     0.3320 c3         1 IVH      -0.003300
     11 N4           1.0160     2.7040    -0.6990 nc         1 IVH      -0.552100
     12 O4           2.5160    -1.6100    -2.3470 oh         1 IVH      -0.546800
     13 C5          -1.9530     0.1240     0.0020 ca         1 IVH       0.828300
     14 C6          -1.4910     2.3330    -0.4310 ca         1 IVH       0.794200
     15 C7          -0.1310     1.9810    -0.4850 ca         1 IVH      -0.243200
     16 C8           0.1620     0.6430    -0.2740 ca         1 IVH       0.488800
     17 C9           1.9700     1.8270    -0.6220 cd         1 IVH       0.408700
     18 C10          2.3140    -0.6310    -0.1790 c5         1 IVH       0.259800
     19 C11          3.2360    -0.9600    -1.3520 c5         1 IVH       0.115100
     20 C12          4.3300    -1.7640    -0.6510 c5         1 IVH       0.076100
     21 C13          4.4520    -0.9970     0.6690 c5         1 IVH       0.107100
     22 C14          5.4900     0.1050     0.6160 c3         1 IVH       0.128400
     23 H1          -8.3630    -2.2070    -0.3370 hc         1 IVH       0.033033
     24 H1A         -8.2890    -2.1910     1.4230 hc         1 IVH       0.033033
     25 H1B         -9.3250    -1.0470     0.5750 hc         1 IVH       0.033033
     26 H2          -7.3220     0.0820    -0.3970 hc         1 IVH       0.038700
     27 H2A         -7.2480     0.0990     1.3510 hc         1 IVH       0.038700
     28 HO2          6.1360     1.4880     1.8030 ho         1 IVH       0.406000
     29 H3          -5.7270    -1.8740     1.3220 hc         1 IVH       0.050200
     30 H3A         -5.8160    -1.9290    -0.4300 hc         1 IVH       0.050200
     31 HO3          4.5370    -3.5820    -0.0220 ho         1 IVH       0.408000
     32 H4          -4.7350     0.4460     1.1780 h1         1 IVH       0.072200
     33 H4A         -4.7980     0.3450    -0.5820 h1         1 IVH       0.072200
     34 HO4          3.0670    -1.6820    -3.1320 ho         1 IVH       0.412000
     35 HN5         -2.9090     3.7830    -0.5950 hn         1 IVH       0.450800
     36 HN5A        -1.2860     4.3230    -0.8360 hn         1 IVH       0.450800
     37 H9           3.0210     2.0490    -0.7330 h5         1 IVH       0.060800
     38 H10          1.6000    -1.4480    -0.0230 h2         1 IVH       0.131700
     39 H11          3.6940    -0.0330    -1.7250 h1         1 IVH       0.039700
     40 H12          5.2730    -1.7500    -1.2130 h1         1 IVH       0.048700
     41 H13          4.7070    -1.6780     1.4870 h1         1 IVH       0.086700
     42 H14          5.2900     0.7810    -0.2280 h1         1 IVH       0.017200
     43 H14A         6.4620    -0.3640     0.4170 h1         1 IVH       0.017200
     44 N5          -1.9240     3.5790    -0.6140 nv         1 IVH      -0.955500
     45 C3          -5.8510    -1.2520     0.4290 c3         1 IVH      -0.070400
@<TRIPOS>BOND
     1     1    10 1   
     2     1    13 1   
     3     2     5 1   
     4     2    23 1   
     5     2    24 1   
     6     2    25 1   
     7     3    13 ar  
     8     3    14 ar  
     9     4    18 1   
    10     4    21 1   
    11     5    26 1   
    12     5    27 1   
    13     5    45 1   
    14     6    13 ar  
    15     6    16 ar  
    16     7    22 1   
    17     7    28 1   
    18     8    16 1   
    19     8    17 1   
    20     8    18 1   
    21     9    20 1   
    22     9    31 1   
    23    10    32 1   
    24    10    33 1   
    25    10    45 1   
    26    11    15 1   
    27    11    17 2   
    28    12    19 1   
    29    12    34 1   
    30    14    15 ar  
    31    14    44 1   
    32    15    16 ar  
    33    17    37 1   
    34    18    19 1   
    35    18    38 1   
    36    19    20 1   
    37    19    39 1   
    38    20    21 1   
    39    20    40 1   
    40    21    22 1   
    41    21    41 1   
    42    22    42 1   
    43    22    43 1   
    44    29    45 1   
    45    30    45 1   
    46    35    44 1   
    47    36    44 1   
@<TRIPOS>SUBSTRUCTURE
     1 IVH         1 TEMP              0 ****  ****    0 ROOT
