@<TRIPOS>MOLECULE
IVI
   35    37     1     0     0
SMALL
No Charge or Current Charge


@<TRIPOS>ATOM
      1 C13        -26.8730    33.8110   -26.5050 ca         1 IVI      -0.083500
      2 C15        -28.3630    32.0170   -25.8210 ca         1 IVI      -0.083500
      3 C20        -25.4920    27.1410   -23.7080 ca         1 IVI       0.288000
      4 C01        -23.5200    23.8430   -25.6000 c3         1 IVI       0.223100
      5 C03        -23.5990    26.2150   -24.6090 ca         1 IVI       0.458900
      6 C04        -22.9130    27.4130   -24.3180 ca         1 IVI      -0.096600
      7 C06        -21.4760    29.0100   -24.0880 cc         1 IVI       0.420700
      8 C08        -23.0450    30.7560   -22.9890 c3         1 IVI       0.004600
      9 C09        -23.7210    31.7040   -23.9920 c          1 IVI       0.592100
     10 C11        -26.0650    32.0740   -24.9850 ca         1 IVI      -0.025000
     11 C12        -25.8430    33.2580   -25.7240 ca         1 IVI      -0.145000
     12 C14        -28.1320    33.1920   -26.5540 ca         1 IVI      -0.133000
     13 C16        -27.3340    31.4640   -25.0400 ca         1 IVI      -0.145000
     14 C18        -23.6090    28.4290   -23.7120 ca         1 IVI       0.139500
     15 N02        -22.9500    25.1490   -25.2220 nu         1 IVI      -0.908100
     16 N05        -21.5740    27.7520   -24.5620 nd         1 IVI      -0.544100
     17 N07        -22.7000    29.4370   -23.5670 na         1 IVI      -0.274300
     18 N10        -25.0760    31.4560   -24.1730 ns         1 IVI      -0.141000
     19 N19        -24.9120    28.3220   -23.3920 nb         1 IVI      -0.208000
     20 N22        -24.9030    26.0770   -24.3020 nb         1 IVI      -0.283000
     21 O17        -23.0900    32.5790   -24.5770 o          1 IVI      -0.560100
     22 H131       -26.6950    34.7240   -27.0710 ha         1 IVI       0.115500
     23 H151       -29.3380    31.5360   -25.8570 ha         1 IVI       0.115500
     24 H012       -22.7550    23.2090   -26.0690 h1         1 IVI       0.048700
     25 H013       -23.9060    23.3190   -24.7140 h1         1 IVI       0.048700
     26 H011       -24.3450    23.9730   -26.3130 h1         1 IVI       0.048700
     27 H061       -20.5920    29.6370   -24.0960 h5         1 IVI       0.069800
     28 H081       -23.7170    30.6180   -22.1330 h1         1 IVI       0.080700
     29 H082       -22.1320    31.2440   -22.6260 h1         1 IVI       0.080700
     30 H121       -24.8850    33.7670   -25.7020 ha         1 IVI       0.128000
     31 H141       -28.9280    33.6220   -27.1590 ha         1 IVI       0.116000
     32 H161       -27.5250    30.5530   -24.4760 ha         1 IVI       0.128000
     33 H021       -21.9640    25.3270   -25.4290 hn         1 IVI       0.518000
     34 H101       -25.4260    30.6760   -23.6310 hn         1 IVI       0.150000
     35 Cl21       -27.1950    26.9760   -23.3130 cl         1 IVI      -0.146000
@<TRIPOS>BOND
     1     1    11 ar  
     2     1    12 ar  
     3     1    22 1   
     4     2    12 ar  
     5     2    13 ar  
     6     2    23 1   
     7     3    19 ar  
     8     3    20 ar  
     9     3    35 1   
    10     4    15 1   
    11     4    24 1   
    12     4    25 1   
    13     4    26 1   
    14     5     6 ar  
    15     5    15 1   
    16     5    20 ar  
    17     6    14 ar  
    18     6    16 1   
    19     7    16 2   
    20     7    17 1   
    21     7    27 1   
    22     8     9 1   
    23     8    17 1   
    24     8    28 1   
    25     8    29 1   
    26     9    18 1   
    27     9    21 2   
    28    10    11 ar  
    29    10    13 ar  
    30    10    18 1   
    31    11    30 1   
    32    12    31 1   
    33    13    32 1   
    34    14    17 1   
    35    14    19 ar  
    36    15    33 1   
    37    18    34 1   
@<TRIPOS>SUBSTRUCTURE
     1 IVI         1 TEMP              0 ****  ****    0 ROOT
