@<TRIPOS>MOLECULE
IVI
   35    37     1     0     0
SMALL
abcg2


@<TRIPOS>ATOM
      1 C13        -27.0270    33.5970   -26.9000 ca         1 IVI      -0.083500
      2 C15        -28.3170    34.0180   -24.9200 ca         1 IVI      -0.083500
      3 C20        -25.2220    26.3800   -24.3730 ca         1 IVI       0.288000
      4 C01        -22.4680    23.5470   -25.5910 c3         1 IVI       0.223100
      5 C03        -23.0330    25.7890   -24.7470 ca         1 IVI       0.458900
      6 C04        -22.6800    27.0870   -24.3140 ca         1 IVI      -0.096600
      7 C06        -21.7910    28.9370   -23.7430 cc         1 IVI       0.420700
      8 C08        -23.8400    30.3010   -23.1620 c3         1 IVI       0.004600
      9 C09        -24.5230    30.9700   -24.3630 c          1 IVI       0.592100
     10 C11        -26.3870    32.5670   -24.8200 ca         1 IVI      -0.025000
     11 C12        -26.1660    32.7710   -26.1840 ca         1 IVI      -0.145000
     12 C14        -28.1030    34.2230   -26.2810 ca         1 IVI      -0.133000
     13 C16        -27.4680    33.1970   -24.1940 ca         1 IVI      -0.145000
     14 C18        -23.7270    27.9200   -23.9360 ca         1 IVI       0.139500
     15 N02        -22.1320    24.8840   -25.1350 nu         1 IVI      -0.908100
     16 N05        -21.4710    27.7440   -24.1840 nd         1 IVI      -0.544100
     17 N07        -23.1440    29.1030   -23.5610 na         1 IVI      -0.274300
     18 N10        -25.5690    31.7550   -24.0100 ns         1 IVI      -0.141000
     19 N19        -25.0350    27.6130   -23.9470 nb         1 IVI      -0.208000
     20 N22        -24.3460    25.4680   -24.7640 nb         1 IVI      -0.283000
     21 O17        -24.1100    30.8050   -25.5010 o          1 IVI      -0.560100
     22 H131       -26.8480    33.7490   -27.9570 ha         1 IVI       0.115500
     23 H151       -29.1500    34.4970   -24.4200 ha         1 IVI       0.115500
     24 H012       -21.5420    23.0340   -25.8380 h1         1 IVI       0.048700
     25 H013       -22.9900    22.9880   -24.8140 h1         1 IVI       0.048700
     26 H011       -23.1040    23.5830   -26.4770 h1         1 IVI       0.048700
     27 H061       -21.1000    29.7370   -23.5230 h5         1 IVI       0.069800
     28 H081       -24.5610    30.0590   -22.3820 h1         1 IVI       0.080700
     29 H082       -23.1130    31.0000   -22.7470 h1         1 IVI       0.080700
     30 H121       -25.3360    32.2890   -26.6730 ha         1 IVI       0.128000
     31 H141       -28.7660    34.8620   -26.8490 ha         1 IVI       0.116000
     32 H161       -27.6370    33.0380   -23.1350 ha         1 IVI       0.128000
     33 H021       -21.1630    25.1600   -25.1150 hn         1 IVI       0.518000
     34 H101       -25.8200    31.7480   -23.0320 hn         1 IVI       0.150000
     35 CL21       -26.9030    25.8600   -24.4370 cl         1 IVI      -0.146000
@<TRIPOS>BOND
     1     1    11 ar  
     2     1    12 ar  
     3     1    22 1   
     4     2    12 ar  
     5     2    13 ar  
     6     2    23 1   
     7     3    19 ar  
     8     3    20 ar  
     9     3    35 1   
    10     4    15 1   
    11     4    24 1   
    12     4    25 1   
    13     4    26 1   
    14     5     6 ar  
    15     5    15 1   
    16     5    20 ar  
    17     6    14 ar  
    18     6    16 1   
    19     7    16 2   
    20     7    17 1   
    21     7    27 1   
    22     8     9 1   
    23     8    17 1   
    24     8    28 1   
    25     8    29 1   
    26     9    18 1   
    27     9    21 2   
    28    10    11 ar  
    29    10    13 ar  
    30    10    18 1   
    31    11    30 1   
    32    12    31 1   
    33    13    32 1   
    34    14    17 1   
    35    14    19 ar  
    36    15    33 1   
    37    18    34 1   
@<TRIPOS>SUBSTRUCTURE
     1 IVI         1 TEMP              0 ****  ****    0 ROOT
