@<TRIPOS>MOLECULE
IVK
   58    61     1     0     0
SMALL
abcg2


@<TRIPOS>ATOM
      1 C1           1.7690    -0.7700    -0.6800 c5         1 IVK      -0.140700
      2 C2           0.5240    -1.1530     0.1310 c5         1 IVK      -0.146700
      3 C3           0.5280    -2.6880     0.1330 c5         1 IVK       0.171800
      4 N4           1.9410    -3.0040     0.0570 n3         1 IVK      -0.706600
      5 C5           2.4660    -2.1170    -0.9650 c5         1 IVK       0.164800
      6 C6           2.7040     0.1400     0.0960 c          1 IVK       0.614100
      7 C7          -0.7740    -0.6280    -0.4450 c          1 IVK       0.613100
      8 N8          -1.7860    -0.6170     0.4640 ns         1 IVK      -0.147000
      9 O9          -0.9110    -0.2980    -1.6060 o          1 IVK      -0.573100
     10 O10          2.7890     0.1240     1.3090 o          1 IVK      -0.562100
     11 N11          3.4650     0.9300    -0.7060 ns         1 IVK      -0.146000
     12 C12          4.4750     1.8290    -0.3560 ca         1 IVK      -0.018000
     13 C14          6.5050     3.6670     0.1480 ca         1 IVK       0.093000
     14 C15          6.0290     2.8640     1.1690 ca         1 IVK      -0.075000
     15 C16          5.9790     3.5620    -1.1300 ca         1 IVK      -0.075000
     16 C17          5.0170     1.9470     0.9240 ca         1 IVK      -0.141500
     17 CL1          7.7680     4.8110     0.4670 cl         1 IVK      -0.203000
     18 C19         -3.1090    -0.2370     0.2370 ca         1 IVK      -0.054000
     19 C20         -3.7790    -0.4170    -0.9720 ca         1 IVK      -0.095000
     20 C21         -5.7820     0.5240    -0.0390 ca         1 IVK       0.026600
     21 C22         -5.1450     0.7060     1.1780 ca         1 IVK      -0.115000
     22 C23         -5.1040    -0.0350    -1.1090 ca         1 IVK      -0.080000
     23 C24         -3.8260     0.3260     1.2900 ca         1 IVK       0.129000
     24 N25         -7.1520     0.8950    -0.1740 n          1 IVK      -0.202200
     25 C26         -8.1100     0.0380     0.2750 cc         1 IVK      -0.024400
     26 C27         -9.7880     1.5700    -0.4120 cd         1 IVK      -0.085000
     27 C28         -8.8380     2.4310    -0.8610 cc         1 IVK      -0.318200
     28 C29         -9.4280     0.3340     0.1760 cd         1 IVK      -0.299000
     29 C30         -7.4350     2.1320    -0.7600 c          1 IVK       0.555200
     30 O31         -6.5220     2.8590    -1.1340 o          1 IVK      -0.538000
     31 F32         -3.1990     0.4990     2.4630 f          1 IVK      -0.177000
     32 C33          2.2030    -4.4070    -0.1330 c3         1 IVK       0.101800
     33 C34          3.5430    -4.8160     0.4300 c3         1 IVK       0.303000
     34 F35          3.6560    -4.5300     1.7320 f          1 IVK      -0.112667
     35 F36          3.7300    -6.1380     0.2970 f          1 IVK      -0.112667
     36 F30          4.5770    -4.2190    -0.1850 f          1 IVK      -0.112667
     37 C35          4.9710     2.6480    -1.3740 ca         1 IVK      -0.141500
     38 H1           1.4920    -0.2980    -1.6240 hc         1 IVK       0.091700
     39 H2           0.6360    -0.8080     1.1610 hc         1 IVK       0.107700
     40 H51C         2.1950    -2.4560    -1.9760 h1         1 IVK       0.057700
     41 H52C         3.5530    -2.0440    -0.9290 h1         1 IVK       0.057700
     42 H31C         0.0790    -3.1040     1.0360 h1         1 IVK       0.050700
     43 H32C        -0.0310    -3.0790    -0.7330 h1         1 IVK       0.050700
     44 H331         1.4480    -4.9870     0.4020 h1         1 IVK       0.070200
     45 H332         2.1540    -4.7210    -1.1870 h1         1 IVK       0.070200
     46 H11          3.2540     0.8940    -1.6920 hn         1 IVK       0.153000
     47 H8          -1.5320    -0.8060     1.4210 hn         1 IVK       0.168000
     48 H17          4.6670     1.3320     1.7370 ha         1 IVK       0.133000
     49 H35          4.5620     2.5740    -2.3750 ha         1 IVK       0.133000
     50 H15          6.4400     2.9440     2.1660 ha         1 IVK       0.130500
     51 H16          6.3440     4.1870    -1.9330 ha         1 IVK       0.130500
     52 H20         -3.2750    -0.8700    -1.8110 ha         1 IVK       0.145000
     53 H23         -5.6090    -0.1880    -2.0520 ha         1 IVK       0.135000
     54 H22         -5.6590     1.1440     2.0230 ha         1 IVK       0.146000
     55 H26         -7.7490    -0.8850     0.7060 h4         1 IVK       0.202000
     56 H29        -10.1680    -0.3630     0.5360 ha         1 IVK       0.202000
     57 H27        -10.8350     1.8320    -0.5050 ha         1 IVK       0.187000
     58 H28         -9.1080     3.3770    -1.3090 ha         1 IVK       0.210000
@<TRIPOS>BOND
     1     1     2 1   
     2     1     5 1   
     3     1     6 1   
     4     1    38 1   
     5     2     3 1   
     6     2     7 1   
     7     2    39 1   
     8     3     4 1   
     9     3    42 1   
    10     3    43 1   
    11     4     5 1   
    12     4    32 1   
    13     5    40 1   
    14     5    41 1   
    15     6    10 2   
    16     6    11 1   
    17     7     8 1   
    18     7     9 2   
    19     8    18 1   
    20     8    47 1   
    21    11    12 1   
    22    11    46 1   
    23    12    16 ar  
    24    12    37 ar  
    25    13    14 ar  
    26    13    15 ar  
    27    13    17 1   
    28    14    16 ar  
    29    14    50 1   
    30    15    37 ar  
    31    15    51 1   
    32    16    48 1   
    33    18    19 ar  
    34    18    23 ar  
    35    19    22 ar  
    36    19    52 1   
    37    20    21 ar  
    38    20    22 ar  
    39    20    24 1   
    40    21    23 ar  
    41    21    54 1   
    42    22    53 1   
    43    23    31 1   
    44    24    25 1   
    45    24    29 1   
    46    25    28 2   
    47    25    55 1   
    48    26    27 2   
    49    26    28 1   
    50    26    57 1   
    51    27    29 1   
    52    27    58 1   
    53    28    56 1   
    54    29    30 2   
    55    32    33 1   
    56    32    44 1   
    57    32    45 1   
    58    33    34 1   
    59    33    35 1   
    60    33    36 1   
    61    37    49 1   
@<TRIPOS>SUBSTRUCTURE
     1 IVK         1 TEMP              0 ****  ****    0 ROOT
