@<TRIPOS>MOLECULE
IVK
   58    61     1     0     0
SMALL
No Charge or Current Charge


@<TRIPOS>ATOM
      1 C1           1.9860    -1.5210    -0.7400 c5         1 IVK      -0.140700
      2 C2           0.6640    -2.0960    -0.0960 c5         1 IVK      -0.146700
      3 C3           0.8090    -3.6130    -0.3420 c5         1 IVK       0.171800
      4 N4           2.2350    -3.7730    -0.0030 n3         1 IVK      -0.706600
      5 C5           2.9180    -2.7650    -0.8510 c5         1 IVK       0.164800
      6 C6           2.6480    -0.4700     0.1950 c          1 IVK       0.614100
      7 C7          -0.6040    -1.5860    -0.8240 c          1 IVK       0.613100
      8 N8          -1.4460    -0.9840     0.1040 ns         1 IVK      -0.147000
      9 O9          -0.8250    -1.6710    -2.0260 o          1 IVK      -0.573100
     10 O10          2.9570    -0.6350     1.3700 o          1 IVK      -0.562100
     11 N11          2.8110     0.7160    -0.5140 ns         1 IVK      -0.146000
     12 C12          3.3470     1.9820    -0.1510 ca         1 IVK      -0.018000
     13 C14          4.3800     4.5470     0.4290 ca         1 IVK       0.093000
     14 C15          4.4240     3.5360     1.4010 ca         1 IVK      -0.075000
     15 C16          3.8240     4.2830    -0.8320 ca         1 IVK      -0.075000
     16 C17          3.9110     2.2580     1.1150 ca         1 IVK      -0.141500
     17 Cl1          5.0220     6.1450     0.7900 cl         1 IVK      -0.203000
     18 C19         -2.7190    -0.3560    -0.0240 ca         1 IVK      -0.054000
     19 C20         -3.4550    -0.3300    -1.2270 ca         1 IVK      -0.095000
     20 C21         -5.2470     0.9640    -0.1550 ca         1 IVK       0.026600
     21 C22         -4.5310     0.8840     1.0600 ca         1 IVK      -0.115000
     22 C23         -4.7070     0.3080    -1.2830 ca         1 IVK      -0.080000
     23 C24         -3.2800     0.2510     1.1170 ca         1 IVK       0.129000
     24 N25         -6.5870     1.5210    -0.2000 n          1 IVK      -0.202200
     25 C26         -7.4230     1.3610     0.9170 cc         1 IVK      -0.024400
     26 C27         -9.1620     2.7560    -0.0620 cd         1 IVK      -0.085000
     27 C28         -8.3480     2.9200    -1.1590 cc         1 IVK      -0.318200
     28 C29         -8.6690     1.9500     1.0150 cd         1 IVK      -0.299000
     29 C30         -7.0070     2.3320    -1.2890 c          1 IVK       0.555200
     30 O31         -6.3090     2.5640    -2.2670 o          1 IVK      -0.538000
     31 F32         -2.6100     0.2270     2.2920 f          1 IVK      -0.177000
     32 C33          2.7580    -5.1710    -0.0820 c3         1 IVK       0.101800
     33 C34          4.2300    -5.3990     0.3700 c3         1 IVK       0.303000
     34 F35          4.4800    -4.8050     1.5610 f          1 IVK      -0.112667
     35 F36          4.4810    -6.7210     0.5090 f          1 IVK      -0.112667
     36 F30          5.1090    -4.9100    -0.5360 f          1 IVK      -0.112667
     37 C35          3.3110     3.0050    -1.1190 ca         1 IVK      -0.141500
     38 H1           1.8170    -1.0990    -1.7380 hc         1 IVK       0.091700
     39 H2           0.6100    -1.9000     0.9820 hc         1 IVK       0.107700
     40 H51C         2.9800    -3.1070    -1.8940 h1         1 IVK       0.057700
     41 H52C         3.9420    -2.5560    -0.5100 h1         1 IVK       0.057700
     42 H31C         0.1490    -4.2030     0.3100 h1         1 IVK       0.050700
     43 H32C         0.6070    -3.8920    -1.3870 h1         1 IVK       0.050700
     44 H331         2.1270    -5.8230     0.5380 h1         1 IVK       0.070200
     45 H332         2.6640    -5.5420    -1.1120 h1         1 IVK       0.070200
     46 H11          2.4870     0.6730    -1.4720 hn         1 IVK       0.153000
     47 H8          -1.0910    -0.9890     1.0520 hn         1 IVK       0.168000
     48 H17          3.9660     1.5000     1.8910 ha         1 IVK       0.133000
     49 H35          2.8830     2.8130    -2.1010 ha         1 IVK       0.133000
     50 H15          4.8570     3.7430     2.3770 ha         1 IVK       0.130500
     51 H16          3.7910     5.0660    -1.5850 ha         1 IVK       0.130500
     52 H20         -3.0870    -0.8130    -2.1270 ha         1 IVK       0.145000
     53 H23         -5.2660     0.2700    -2.2150 ha         1 IVK       0.135000
     54 H22         -4.9150     1.3490     1.9640 ha         1 IVK       0.146000
     55 H26         -7.0090     0.7040     1.6730 h4         1 IVK       0.202000
     56 H29         -9.2800     1.7860     1.9010 ha         1 IVK       0.202000
     57 H27        -10.1450     3.2230    -0.0140 ha         1 IVK       0.187000
     58 H28         -8.6590     3.5280    -2.0020 ha         1 IVK       0.210000
@<TRIPOS>BOND
     1     1     2 1   
     2     1     5 1   
     3     1     6 1   
     4     1    38 1   
     5     2     3 1   
     6     2     7 1   
     7     2    39 1   
     8     3     4 1   
     9     3    42 1   
    10     3    43 1   
    11     4     5 1   
    12     4    32 1   
    13     5    40 1   
    14     5    41 1   
    15     6    10 2   
    16     6    11 1   
    17     7     8 1   
    18     7     9 2   
    19     8    18 1   
    20     8    47 1   
    21    11    12 1   
    22    11    46 1   
    23    12    16 ar  
    24    12    37 ar  
    25    13    14 ar  
    26    13    15 ar  
    27    13    17 1   
    28    14    16 ar  
    29    14    50 1   
    30    15    37 ar  
    31    15    51 1   
    32    16    48 1   
    33    18    19 ar  
    34    18    23 ar  
    35    19    22 ar  
    36    19    52 1   
    37    20    21 ar  
    38    20    22 ar  
    39    20    24 1   
    40    21    23 ar  
    41    21    54 1   
    42    22    53 1   
    43    23    31 1   
    44    24    25 1   
    45    24    29 1   
    46    25    28 2   
    47    25    55 1   
    48    26    27 2   
    49    26    28 1   
    50    26    57 1   
    51    27    29 1   
    52    27    58 1   
    53    28    56 1   
    54    29    30 2   
    55    32    33 1   
    56    32    44 1   
    57    32    45 1   
    58    33    34 1   
    59    33    35 1   
    60    33    36 1   
    61    37    49 1   
@<TRIPOS>SUBSTRUCTURE
     1 IVK         1 TEMP              0 ****  ****    0 ROOT
