@<TRIPOS>MOLECULE
IVL
   29    29     1     0     0
SMALL
No Charge or Current Charge


@<TRIPOS>ATOM
      1 CAF          2.8880     1.0290    -0.2240 c5         1 IVL       0.098600
      2 CAE          3.5650     0.3700     0.9960 c5         1 IVL      -0.100400
      3 CAD          3.4370    -1.1130     0.5950 c5         1 IVL      -0.100400
      4 CAA          1.9250    -1.1700     0.2940 c5         1 IVL       0.098600
      5 CAH          1.5040    -0.1330    -2.0090 c3         1 IVL       0.079900
      6 CAJ          0.3600     0.8360     0.0090 c3         1 IVL       0.095600
      7 CAK         -0.9670     0.0570    -0.1020 c3         1 IVL      -0.078400
      8 CAL         -2.1640     0.8410     0.4890 c3         1 IVL      -0.218400
      9 CAM         -3.4570     0.0210     0.3540 c          1 IVL       0.723000
     10 N3           1.6300     0.1440    -0.5040 n4         1 IVL      -0.513000
     11 OAB         -3.7420    -0.7530     1.2550 o          1 IVL      -0.710000
     12 OAC         -4.1080     0.1420    -0.6720 o          1 IVL      -0.710000
     13 HAA1         1.6120    -2.0380    -0.2920 hx         1 IVL       0.099200
     14 HAA2         1.3290    -1.1430     1.2100 hx         1 IVL       0.099200
     15 HAD1         4.0360    -1.3560    -0.2910 hc         1 IVL       0.082450
     16 HAD2         3.7290    -1.8010     1.3960 hc         1 IVL       0.082450
     17 HAE1         4.6050     0.6920     1.1200 hc         1 IVL       0.082450
     18 HAE2         3.0310     0.5950     1.9270 hc         1 IVL       0.082450
     19 HAF1         2.5820     2.0670    -0.0640 hx         1 IVL       0.099200
     20 HAF2         3.5260     0.9940    -1.1100 hx         1 IVL       0.099200
     21 HAH1         2.4270    -0.5960    -2.3650 hx         1 IVL       0.089033
     22 HAH2         0.6650    -0.8090    -2.1830 hx         1 IVL       0.089033
     23 HAH3         1.3360     0.8090    -2.5340 hx         1 IVL       0.089033
     24 HAJ1         0.2590     1.7760    -0.5380 hx         1 IVL       0.077200
     25 HAJ2         0.5290     1.0780     1.0600 hx         1 IVL       0.077200
     26 HAK1        -1.1710    -0.1690    -1.1550 hc         1 IVL       0.063700
     27 HAK2        -0.8700    -0.9020     0.4200 hc         1 IVL       0.063700
     28 HAL1        -1.9230     1.0030     1.5470 hc         1 IVL       0.029200
     29 HAL2        -2.2350     1.7670    -0.0950 hc         1 IVL       0.029200
@<TRIPOS>BOND
     1     1     2 1   
     2     1    10 1   
     3     1    19 1   
     4     1    20 1   
     5     2     3 1   
     6     2    17 1   
     7     2    18 1   
     8     3     4 1   
     9     3    15 1   
    10     3    16 1   
    11     4    10 1   
    12     4    13 1   
    13     4    14 1   
    14     5    10 1   
    15     5    21 1   
    16     5    22 1   
    17     5    23 1   
    18     6     7 1   
    19     6    10 1   
    20     6    24 1   
    21     6    25 1   
    22     7     8 1   
    23     7    26 1   
    24     7    27 1   
    25     8     9 1   
    26     8    28 1   
    27     8    29 1   
    28     9    11 1   
    29     9    12 1   
@<TRIPOS>SUBSTRUCTURE
     1 IVL         1 TEMP              0 ****  ****    0 ROOT
