@<TRIPOS>MOLECULE
IVL
   29    29     1     0     0
SMALL
bcc


@<TRIPOS>ATOM
      1 CAF          2.8100     1.0440    -0.2090 c5         1 IVL       0.126800
      2 CAE          3.5830     0.4040     0.9280 c5         1 IVL      -0.100400
      3 CAD          3.3440    -1.0800     0.6960 c5         1 IVL      -0.100400
      4 CAA          1.8650    -1.1110     0.3730 c5         1 IVL       0.126800
      5 CAH          1.5840    -0.2340    -1.9120 c3         1 IVL       0.108100
      6 CAJ          0.3520     0.8230    -0.0670 c3         1 IVL       0.123800
      7 CAK         -0.9050    -0.0200    -0.1520 c3         1 IVL      -0.078400
      8 CAL         -2.0970     0.8010     0.3230 c3         1 IVL      -0.218400
      9 CAM         -3.4410     0.0460     0.3360 c          1 IVL       0.933600
     10 N3           1.6210     0.1240    -0.4700 n4         1 IVL      -0.625800
     11 OAB         -3.4190    -1.1790     0.1150 o          1 IVL      -0.815300
     12 OAC         -4.4480     0.7410     0.5830 o          1 IVL      -0.815300
     13 HAA1         1.5290    -1.9920    -0.1700 hx         1 IVL       0.099200
     14 HAA2         1.2730    -1.0160     1.2820 hx         1 IVL       0.099200
     15 HAD1         3.9400    -1.4480    -0.1430 hc         1 IVL       0.082450
     16 HAD2         3.5680    -1.6990     1.5630 hc         1 IVL       0.082450
     17 HAE1         4.6330     0.6880     0.8930 hc         1 IVL       0.082450
     18 HAE2         3.1820     0.7120     1.8950 hc         1 IVL       0.082450
     19 HAF1         2.4440     2.0460    -0.0030 hx         1 IVL       0.099200
     20 HAF2         3.4050     1.0740    -1.1200 hx         1 IVL       0.099200
     21 HAH1         2.5140    -0.7280    -2.1800 hx         1 IVL       0.089033
     22 HAH2         0.7530    -0.9050    -2.1070 hx         1 IVL       0.089033
     23 HAH3         1.4760     0.6740    -2.4990 hx         1 IVL       0.089033
     24 HAJ1         0.2750     1.7040    -0.7070 hx         1 IVL       0.077200
     25 HAJ2         0.5110     1.1660     0.9570 hx         1 IVL       0.077200
     26 HAK1        -1.0850    -0.3530    -1.1750 hc         1 IVL       0.063700
     27 HAK2        -0.8150    -0.9140     0.4660 hc         1 IVL       0.063700
     28 HAL1        -1.9100     1.1740     1.3370 hc         1 IVL       0.029200
     29 HAL2        -2.2050     1.6960    -0.2980 hc         1 IVL       0.029200
@<TRIPOS>BOND
     1     1     2 1   
     2     1    10 1   
     3     1    19 1   
     4     1    20 1   
     5     2     3 1   
     6     2    17 1   
     7     2    18 1   
     8     3     4 1   
     9     3    15 1   
    10     3    16 1   
    11     4    10 1   
    12     4    13 1   
    13     4    14 1   
    14     5    10 1   
    15     5    21 1   
    16     5    22 1   
    17     5    23 1   
    18     6     7 1   
    19     6    10 1   
    20     6    24 1   
    21     6    25 1   
    22     7     8 1   
    23     7    26 1   
    24     7    27 1   
    25     8     9 1   
    26     8    28 1   
    27     8    29 1   
    28     9    11 1   
    29     9    12 1   
@<TRIPOS>SUBSTRUCTURE
     1 IVL         1 TEMP              0 ****  ****    0 ROOT
