@<TRIPOS>MOLECULE
IVM
  136   142     1     0     0
SMALL
No Charge or Current Charge


@<TRIPOS>ATOM
      1 C1          37.2080   100.9370    32.7020 c3         1 IVM      -0.093100
      2 O1          33.5460   102.0940    32.9640 os         1 IVM      -0.478000
      3 C2          36.3740   101.3570    33.9330 c3         1 IVM      -0.074400
      4 O2          36.4540    95.4480    31.7290 os         1 IVM      -0.483000
      5 C3          35.7260   102.7710    33.8430 c3         1 IVM      -0.050700
      6 O3          40.0950    95.6470    34.1450 os         1 IVM      -0.467000
      7 C4          35.1390   103.1580    35.2280 c3         1 IVM      -0.084100
      8 O4          39.8510    92.8520    33.3130 os         1 IVM      -0.494000
      9 C5          34.6970   102.9130    32.6640 c6         1 IVM       0.172300
     10 O5          43.2860    93.2320    35.9590 os         1 IVM      -0.457000
     11 C6          32.6380   101.8840    31.8570 c6         1 IVM       0.391000
     12 O6          41.7480    91.1640    37.1710 oh         1 IVM      -0.712000
     13 C7          32.2580   103.2560    31.2040 c6         1 IVM      -0.090400
     14 O7          40.8400    90.7440    33.5580 os         1 IVM      -0.452000
     15 C8          32.7290   104.4590    32.0580 c6         1 IVM      -0.066400
     16 O8          38.2950    94.7160    30.4570 os         1 IVM      -0.481000
     17 C9          34.2560   104.3840    32.3490 c6         1 IVM      -0.087700
     18 O9          28.1940    95.0430    34.7920 os         1 IVM      -0.433000
     19 C10         35.1040   104.9780    31.1890 c3         1 IVM      -0.088100
     20 O10         26.2920    95.4490    36.9620 oh         1 IVM      -0.699000
     21 C11         31.3690   101.1650    32.3990 c6         1 IVM      -0.101400
     22 C12         31.7250    99.7500    32.9070 c6         1 IVM       0.179300
     23 O12         30.5620    99.0080    33.3050 os         1 IVM      -0.441100
     24 C13         32.4430    98.9580    31.8070 c6         1 IVM      -0.113400
     25 O13         30.5770    97.0170    36.6680 oh         1 IVM      -0.713000
     26 C14         33.6870    99.7410    31.3520 c6         1 IVM       0.174300
     27 O14         33.2840   101.0420    30.8700 os         1 IVM      -0.488000
     28 C15         34.4680    99.0050    30.2350 c3         1 IVM      -0.036200
     29 C16         34.9990    97.6600    30.7170 c2         1 IVM      -0.214200
     30 C17         34.8970    96.4430    30.1380 c2         1 IVM      -0.139400
     31 C18         34.2660    96.1690    28.7790 c3         1 IVM      -0.055900
     32 C19         35.3800    95.1490    30.8130 c3         1 IVM       0.209500
     33 C20         37.7100    95.8390    31.1480 c6         1 IVM       0.379300
     34 C21         38.6730    96.3380    32.2440 c6         1 IVM      -0.124400
     35 C22         39.0820    95.1930    33.2100 c6         1 IVM       0.161300
     36 C24         39.6100    93.9640    32.4110 c6         1 IVM       0.160300
     37 C25         41.0400    92.0820    33.0610 c6         1 IVM       0.399300
     38 C26         42.2750    92.7320    33.7290 c6         1 IVM      -0.154400
     39 C27         42.1320    92.6850    35.2720 c6         1 IVM       0.178300
     40 C29         41.8890    91.2200    35.7370 c6         1 IVM       0.145300
     41 C30         40.6460    90.6460    34.9910 c6         1 IVM       0.140300
     42 C31         40.3920    89.1480    35.2960 c3         1 IVM      -0.090100
     43 C32         38.5960    93.5740    31.2910 c6         1 IVM       0.151300
     44 C33         39.1000    92.4630    30.3370 c3         1 IVM      -0.089100
     45 C34         34.2560    94.4050    31.6000 c3         1 IVM      -0.022500
     46 C35         34.7550    93.0710    32.2010 c3         1 IVM      -0.081100
     47 C36         33.5780    95.2480    32.6720 c2         1 IVM      -0.176200
     48 C37         32.3030    95.0890    33.0930 ce         1 IVM      -0.204000
     49 C38         31.6680    95.9230    34.1250 ce         1 IVM      -0.132000
     50 C39         30.3950    95.7660    34.5690 c2         1 IVM      -0.188400
     51 C40         29.4160    94.7040    34.0850 c5         1 IVM       0.181800
     52 C41         28.6040    95.6420    36.0550 c5         1 IVM       0.173300
     53 C42         27.4480    96.3060    36.8760 c6         1 IVM       0.220500
     54 C43         27.0790    97.7300    36.4240 c2         1 IVM      -0.119400
     55 C44         27.8420    98.4360    35.5670 c2         1 IVM      -0.196200
     56 C45         29.0990    97.8940    34.8850 c6         1 IVM      -0.110500
     57 C46         30.1700    98.9570    34.6120 c          1 IVM       0.596100
     58 C47         29.7040    96.6430    35.5960 c5         1 IVM       0.202200
     59 C48         25.8480    98.3380    37.0820 c3         1 IVM      -0.056900
     60 H1          37.7000    99.9760    32.8900 hc         1 IVM       0.032033
     61 H1A         36.5810   100.8210    31.8110 hc         1 IVM       0.032033
     62 H1B         37.9840   101.6810    32.4870 hc         1 IVM       0.032033
     63 H2          35.5950   100.6070    34.1120 hc         1 IVM       0.042200
     64 H2A         37.0360   101.3260    34.8080 hc         1 IVM       0.042200
     65 H3          36.5450   103.4750    33.6470 hc         1 IVM       0.046700
     66 H4          34.7460   104.1800    35.2350 hc         1 IVM       0.038033
     67 H4A         34.3250   102.4790    35.5120 hc         1 IVM       0.038033
     68 H4B         35.9110   103.1010    36.0050 hc         1 IVM       0.038033
     69 H5          35.1690   102.5070    31.7590 h1         1 IVM       0.047700
     70 HO6         42.4380    91.7760    37.5210 ho         1 IVM       0.503000
     71 H7          32.7060   103.3240    30.2040 hc         1 IVM       0.061200
     72 H7A         31.1740   103.3260    31.0450 hc         1 IVM       0.061200
     73 H8          32.4730   105.4060    31.5620 hc         1 IVM       0.049200
     74 H8A         32.1790   104.4570    33.0100 hc         1 IVM       0.049200
     75 H9          34.4590   105.0330    33.2100 hc         1 IVM       0.058700
     76 H10         34.8340   106.0230    30.9950 hc         1 IVM       0.035033
     77 H10A        36.1730   104.9540    31.4310 hc         1 IVM       0.035033
     78 H10B        34.9610   104.4170    30.2580 hc         1 IVM       0.035033
     79 HO10        25.6550    95.9010    37.5570 ho         1 IVM       0.498000
     80 H11         30.9250   101.7540    33.2110 hc         1 IVM       0.070700
     81 H11A        30.6130   101.0900    31.6060 hc         1 IVM       0.070700
     82 H12         32.4160    99.8340    33.7610 h1         1 IVM       0.082700
     83 H13         32.7310    97.9730    32.1920 hc         1 IVM       0.067700
     84 H13A        31.7700    98.7860    30.9560 hc         1 IVM       0.067700
     85 HO13        30.6840    97.9970    36.6180 ho         1 IVM       0.540000
     86 H14         34.3690    99.8690    32.2050 h1         1 IVM       0.052700
     87 H15         33.8180    98.9010    29.3600 hc         1 IVM       0.059200
     88 H15A        35.3100    99.6290    29.9140 hc         1 IVM       0.059200
     89 H16         35.4680    97.7380    31.6990 ha         1 IVM       0.176000
     90 H18         34.9530    95.6060    28.1350 hc         1 IVM       0.043700
     91 H18A        33.3490    95.5770    28.8810 hc         1 IVM       0.043700
     92 H18B        34.0050    97.0790    28.2300 hc         1 IVM       0.043700
     93 H19         35.7420    94.4590    30.0380 h1         1 IVM       0.057700
     94 H20         37.5420    96.6570    30.4310 h2         1 IVM       0.076700
     95 H21         39.5660    96.7650    31.7700 hc         1 IVM       0.066200
     96 H21A        38.1850    97.1530    32.7920 hc         1 IVM       0.066200
     97 H22         38.1960    94.8740    33.7790 h1         1 IVM       0.064700
     98 H23         40.5340    96.8240    35.8150 h1         1 IVM       0.032367
     99 H23A        39.4780    97.6000    34.6210 h1         1 IVM       0.032367
    100 H23B        38.8360    96.3190    35.6820 h1         1 IVM       0.032367
    101 H24         40.5560    94.2610    31.9350 h1         1 IVM       0.055700
    102 H25         41.2160    92.0220    31.9770 h2         1 IVM       0.065700
    103 H26         43.1800    92.1960    33.4110 hc         1 IVM       0.068700
    104 H26A        42.3780    93.7650    33.3770 hc         1 IVM       0.068700
    105 H27         41.2530    93.2830    35.5570 h1         1 IVM       0.063700
    106 H28         44.3830    94.9490    36.4290 h1         1 IVM       0.029367
    107 H28A        43.8360    94.8580    34.7450 h1         1 IVM       0.029367
    108 H28B        42.6720    95.2370    36.0410 h1         1 IVM       0.029367
    109 H29         42.7640    90.6250    35.4360 h1         1 IVM       0.050700
    110 H30         39.7480    91.2150    35.2740 h1         1 IVM       0.066700
    111 H31         40.1730    88.9920    36.3590 hc         1 IVM       0.045367
    112 H31A        39.5360    88.7710    34.7250 hc         1 IVM       0.045367
    113 H31B        41.2650    88.5350    35.0410 hc         1 IVM       0.045367
    114 H32         37.6660    93.2200    31.7580 h1         1 IVM       0.060700
    115 H33         39.2150    91.5100    30.8660 hc         1 IVM       0.049033
    116 H33A        38.3870    92.2960    29.5210 hc         1 IVM       0.049033
    117 H33B        40.0660    92.7260    29.8920 hc         1 IVM       0.049033
    118 H34         33.4940    94.1370    30.8580 hc         1 IVM       0.053700
    119 H35         33.9210    92.5100    32.6400 hc         1 IVM       0.042033
    120 H35A        35.2160    92.4440    31.4280 hc         1 IVM       0.042033
    121 H35B        35.4960    93.2480    32.9900 hc         1 IVM       0.042033
    122 H36         34.2140    96.0200    33.1090 ha         1 IVM       0.182000
    123 H37         31.6910    94.3040    32.6460 ha         1 IVM       0.168000
    124 H38         32.2840    96.7230    34.5400 ha         1 IVM       0.181000
    125 H40         29.7350    93.6920    34.3680 h1         1 IVM       0.060200
    126 H40A        29.2380    94.7390    33.0010 h1         1 IVM       0.060200
    127 H41         29.0440    94.8510    36.6780 h1         1 IVM       0.066700
    128 H42         27.8550    96.4260    37.8920 h1         1 IVM       0.050700
    129 H44         27.5630    99.4590    35.3000 ha         1 IVM       0.185000
    130 H45         28.7750    97.5650    33.8890 hc         1 IVM       0.106700
    131 H48         25.7250    99.3930    36.8110 hc         1 IVM       0.045367
    132 H48A        24.9310    97.8200    36.7760 hc         1 IVM       0.045367
    133 H48B        25.9190    98.2910    38.1750 hc         1 IVM       0.045367
    134 C23         39.7130    96.6460    35.1090 c3         1 IVM       0.146900
    135 O11         30.6690    99.6210    35.5110 o          1 IVM      -0.505000
    136 C28         43.5540    94.6360    35.7820 c3         1 IVM       0.150900
@<TRIPOS>BOND
     1     1     3 1   
     2     1    60 1   
     3     1    61 1   
     4     1    62 1   
     5     2     9 1   
     6     2    11 1   
     7     3     5 1   
     8     3    63 1   
     9     3    64 1   
    10     4    32 1   
    11     4    33 1   
    12     5     7 1   
    13     5     9 1   
    14     5    65 1   
    15     6    35 1   
    16     6   134 1   
    17     7    66 1   
    18     7    67 1   
    19     7    68 1   
    20     8    36 1   
    21     8    37 1   
    22     9    17 1   
    23     9    69 1   
    24    10    39 1   
    25    10   136 1   
    26    11    13 1   
    27    11    21 1   
    28    11    27 1   
    29    12    40 1   
    30    12    70 1   
    31    13    15 1   
    32    13    71 1   
    33    13    72 1   
    34    14    37 1   
    35    14    41 1   
    36    15    17 1   
    37    15    73 1   
    38    15    74 1   
    39    16    33 1   
    40    16    43 1   
    41    17    19 1   
    42    17    75 1   
    43    18    51 1   
    44    18    52 1   
    45    19    76 1   
    46    19    77 1   
    47    19    78 1   
    48    20    53 1   
    49    20    79 1   
    50    21    22 1   
    51    21    80 1   
    52    21    81 1   
    53    22    23 1   
    54    22    24 1   
    55    22    82 1   
    56    23    57 1   
    57    24    26 1   
    58    24    83 1   
    59    24    84 1   
    60    25    58 1   
    61    25    85 1   
    62    26    27 1   
    63    26    28 1   
    64    26    86 1   
    65    28    29 1   
    66    28    87 1   
    67    28    88 1   
    68    29    30 2   
    69    29    89 1   
    70    30    31 1   
    71    30    32 1   
    72    31    90 1   
    73    31    91 1   
    74    31    92 1   
    75    32    45 1   
    76    32    93 1   
    77    33    34 1   
    78    33    94 1   
    79    34    35 1   
    80    34    95 1   
    81    34    96 1   
    82    35    36 1   
    83    35    97 1   
    84    36    43 1   
    85    36   101 1   
    86    37    38 1   
    87    37   102 1   
    88    38    39 1   
    89    38   103 1   
    90    38   104 1   
    91    39    40 1   
    92    39   105 1   
    93    40    41 1   
    94    40   109 1   
    95    41    42 1   
    96    41   110 1   
    97    42   111 1   
    98    42   112 1   
    99    42   113 1   
   100    43    44 1   
   101    43   114 1   
   102    44   115 1   
   103    44   116 1   
   104    44   117 1   
   105    45    46 1   
   106    45    47 1   
   107    45   118 1   
   108    46   119 1   
   109    46   120 1   
   110    46   121 1   
   111    47    48 2   
   112    47   122 1   
   113    48    49 1   
   114    48   123 1   
   115    49    50 2   
   116    49   124 1   
   117    50    51 1   
   118    50    58 1   
   119    51   125 1   
   120    51   126 1   
   121    52    53 1   
   122    52    58 1   
   123    52   127 1   
   124    53    54 1   
   125    53   128 1   
   126    54    55 2   
   127    54    59 1   
   128    55    56 1   
   129    55   129 1   
   130    56    57 1   
   131    56    58 1   
   132    56   130 1   
   133    57   135 2   
   134    59   131 1   
   135    59   132 1   
   136    59   133 1   
   137    98   134 1   
   138    99   134 1   
   139   100   134 1   
   140   106   136 1   
   141   107   136 1   
   142   108   136 1   
@<TRIPOS>SUBSTRUCTURE
     1 IVM         1 TEMP              0 ****  ****    0 ROOT
