@<TRIPOS>MOLECULE
IVM
  136   142     1     0     0
SMALL
abcg2


@<TRIPOS>ATOM
      1 C1          37.3450   100.5310    32.3350 c3         1 IVM      -0.093100
      2 O1          33.8540   101.6800    33.0980 os         1 IVM      -0.478000
      3 C2          36.6340   100.6880    33.6770 c3         1 IVM      -0.074400
      4 O2          36.2750    95.3360    31.4860 os         1 IVM      -0.483000
      5 C3          36.0590   102.0850    33.9600 c3         1 IVM      -0.050700
      6 O3          40.0470    95.9900    33.4740 os         1 IVM      -0.467000
      7 C4          35.5250   102.1450    35.3940 c3         1 IVM      -0.084100
      8 O4          39.8030    93.1530    33.2520 os         1 IVM      -0.494000
      9 C5          35.0140   102.5100    32.9250 c6         1 IVM       0.172300
     10 O5          43.0630    94.1490    36.0130 os         1 IVM      -0.457000
     11 C6          32.9600   101.7040    31.9990 c6         1 IVM       0.391000
     12 O6          41.4680    92.2560    37.3610 oh         1 IVM      -0.712000
     13 C7          32.8050   103.1280    31.4500 c6         1 IVM      -0.090400
     14 O7          41.0010    91.2890    33.8280 os         1 IVM      -0.452000
     15 C8          33.1480   104.1480    32.5340 c6         1 IVM      -0.066400
     16 O8          38.0020    94.3180    30.2730 os         1 IVM      -0.481000
     17 C9          34.6150   104.0000    32.9820 c6         1 IVM      -0.087700
     18 O9          28.0380    95.3140    34.4940 os         1 IVM      -0.433000
     19 C10         35.5630   104.8360    32.1230 c3         1 IVM      -0.088100
     20 O10         26.2630    95.5800    36.5510 oh         1 IVM      -0.699000
     21 C11         31.6450   101.1150    32.5210 c6         1 IVM      -0.101400
     22 C12         31.8480    99.6610    32.9040 c6         1 IVM       0.179300
     23 O12         30.5730    99.0430    33.2590 os         1 IVM      -0.441100
     24 C13         32.4110    98.8760    31.7380 c6         1 IVM      -0.113400
     25 O13         30.4850    96.8940    36.5430 oh         1 IVM      -0.713000
     26 C14         33.7050    99.5360    31.2800 c6         1 IVM       0.174300
     27 O14         33.4680   100.9080    30.9280 os         1 IVM      -0.488000
     28 C15         34.3360    98.8410    30.0780 c3         1 IVM      -0.036200
     29 C16         34.8890    97.5090    30.4860 c2         1 IVM      -0.214200
     30 C17         34.4890    96.2960    30.1070 c2         1 IVM      -0.139400
     31 C18         33.3820    96.0260    29.1280 c3         1 IVM      -0.055900
     32 C19         35.1310    95.0450    30.6820 c3         1 IVM       0.209500
     33 C20         37.4670    95.5370    30.7560 c6         1 IVM       0.379300
     34 C21         38.4600    96.2580    31.6490 c6         1 IVM      -0.124400
     35 C22         38.9840    95.3600    32.7670 c6         1 IVM       0.161300
     36 C24         39.5020    94.0530    32.1880 c6         1 IVM       0.160300
     37 C25         41.0930    92.5460    33.2140 c6         1 IVM       0.399300
     38 C26         42.1500    93.4170    33.8770 c6         1 IVM      -0.154400
     39 C27         41.9540    93.5090    35.3880 c6         1 IVM       0.178300
     40 C29         41.8140    92.1200    35.9830 c6         1 IVM       0.145300
     41 C30         40.7280    91.3260    35.2400 c6         1 IVM       0.140300
     42 C31         40.6300    89.8860    35.6990 c3         1 IVM      -0.090100
     43 C32         38.4370    93.4050    31.2910 c6         1 IVM       0.151300
     44 C33         38.9280    92.1600    30.5810 c3         1 IVM      -0.089100
     45 C34         34.1340    94.2250    31.5300 c3         1 IVM      -0.022500
     46 C35         34.7870    92.9490    32.0810 c3         1 IVM      -0.081100
     47 C36         33.5250    95.0390    32.6330 c2         1 IVM      -0.176200
     48 C37         32.2180    95.0540    32.9190 ce         1 IVM      -0.204000
     49 C38         31.6270    95.8230    33.9960 ce         1 IVM      -0.132000
     50 C39         30.3310    95.8330    34.3090 c2         1 IVM      -0.188400
     51 C40         29.2090    95.0290    33.6960 c5         1 IVM       0.181800
     52 C41         28.5130    95.7360    35.7700 c5         1 IVM       0.173300
     53 C42         27.4460    96.3840    36.6350 c6         1 IVM       0.220500
     54 C43         27.1880    97.8460    36.3500 c2         1 IVM      -0.119400
     55 C44         27.9940    98.5620    35.5710 c2         1 IVM      -0.196200
     56 C45         29.1140    97.9630    34.7660 c6         1 IVM      -0.110500
     57 C46         30.2680    98.9110    34.5430 c          1 IVM       0.596100
     58 C47         29.6870    96.6530    35.4070 c5         1 IVM       0.202200
     59 C48         26.0330    98.4590    37.0860 c3         1 IVM      -0.056900
     60 H1          37.8040    99.5430    32.2580 hc         1 IVM       0.032033
     61 H1A         36.6600   100.6360    31.4930 hc         1 IVM       0.032033
     62 H1B         38.1350   101.2770    32.2190 hc         1 IVM       0.032033
     63 H2          35.8280    99.9530    33.7550 hc         1 IVM       0.042200
     64 H2A         37.3390   100.4500    34.4800 hc         1 IVM       0.042200
     65 H3          36.8800   102.8060    33.8670 hc         1 IVM       0.046700
     66 H4          35.1070   103.1220    35.6390 hc         1 IVM       0.038033
     67 H4A         34.7450   101.3970    35.5470 hc         1 IVM       0.038033
     68 H4B         36.3310   101.9400    36.1010 hc         1 IVM       0.038033
     69 H5          35.4170   102.3110    31.9280 h1         1 IVM       0.047700
     70 HO6         41.6990    91.4410    37.8210 ho         1 IVM       0.503000
     71 H7          33.4800   103.2430    30.5990 hc         1 IVM       0.061200
     72 H7A         31.7900   103.2680    31.0780 hc         1 IVM       0.061200
     73 H8          32.9690   105.1610    32.1690 hc         1 IVM       0.049200
     74 H8A         32.4830   103.9980    33.3880 hc         1 IVM       0.049200
     75 H9          34.6910   104.3500    34.0130 hc         1 IVM       0.058700
     76 H10         35.3470   105.9000    32.2300 hc         1 IVM       0.035033
     77 H10A        36.6050   104.6740    32.4080 hc         1 IVM       0.035033
     78 H10B        35.4640   104.5750    31.0660 hc         1 IVM       0.035033
     79 HO10        25.7380    95.7270    37.3470 ho         1 IVM       0.498000
     80 H11         31.2980   101.7030    33.3710 hc         1 IVM       0.070700
     81 H11A        30.9000   101.1760    31.7260 hc         1 IVM       0.070700
     82 H12         32.5000    99.5810    33.7700 h1         1 IVM       0.082700
     83 H13         32.6060    97.8440    32.0300 hc         1 IVM       0.067700
     84 H13A        31.6930    98.8710    30.9140 hc         1 IVM       0.067700
     85 HO13        30.8390    97.7980    36.4950 ho         1 IVM       0.540000
     86 H14         34.4220    99.5170    32.1050 h1         1 IVM       0.052700
     87 H15         33.6030    98.7650    29.2740 hc         1 IVM       0.059200
     88 H15A        35.1510    99.4800    29.7230 hc         1 IVM       0.059200
     89 H16         35.6850    97.5670    31.2200 ha         1 IVM       0.176000
     90 H18         33.6690    95.2330    28.4310 hc         1 IVM       0.043700
     91 H18A        32.4800    95.6840    29.6440 hc         1 IVM       0.043700
     92 H18B        33.1170    96.9090    28.5500 hc         1 IVM       0.043700
     93 H19         35.4440    94.4000    29.8520 h1         1 IVM       0.057700
     94 H20         37.2600    96.1180    29.8560 h2         1 IVM       0.076700
     95 H21         39.3060    96.5720    31.0330 hc         1 IVM       0.066200
     96 H21A        37.9900    97.1530    32.0560 hc         1 IVM       0.066200
     97 H22         38.1770    95.1210    33.4710 h1         1 IVM       0.064700
     98 H23         40.5040    97.3000    34.9500 h1         1 IVM       0.032367
     99 H23A        39.0830    97.7730    33.9940 h1         1 IVM       0.032367
    100 H23B        38.9570    96.4520    35.1830 h1         1 IVM       0.032367
    101 H24         40.4000    94.2620    31.5970 h1         1 IVM       0.055700
    102 H25         41.3660    92.3420    32.1760 h2         1 IVM       0.065700
    103 H26         43.1280    92.9730    33.6770 hc         1 IVM       0.068700
    104 H26A        42.1270    94.4090    33.4270 hc         1 IVM       0.068700
    105 H27         41.0410    94.0730    35.6150 h1         1 IVM       0.063700
    106 H28         43.8980    95.9360    36.4780 h1         1 IVM       0.029367
    107 H28A        43.0990    95.9150    34.8910 h1         1 IVM       0.029367
    108 H28B        42.1190    95.9660    36.3760 h1         1 IVM       0.029367
    109 H29         42.7720    91.5960    35.8810 h1         1 IVM       0.050700
    110 H30         39.7710    91.8330    35.4040 h1         1 IVM       0.066700
    111 H31         40.3710    89.8370    36.7580 hc         1 IVM       0.045367
    112 H31A        39.8540    89.3650    35.1380 hc         1 IVM       0.045367
    113 H31B        41.5810    89.3710    35.5450 hc         1 IVM       0.045367
    114 H32         37.5860    93.1500    31.9280 h1         1 IVM       0.060700
    115 H33         39.2340    91.4050    31.3050 hc         1 IVM       0.049033
    116 H33A        38.1280    91.7440    29.9680 hc         1 IVM       0.049033
    117 H33B        39.7780    92.3950    29.9370 hc         1 IVM       0.049033
    118 H34         33.3340    93.9200    30.8520 hc         1 IVM       0.053700
    119 H35         34.0280    92.3070    32.5310 hc         1 IVM       0.042033
    120 H35A        35.2810    92.3920    31.2820 hc         1 IVM       0.042033
    121 H35B        35.5290    93.1850    32.8430 hc         1 IVM       0.042033
    122 H36         34.2090    95.6260    33.2410 ha         1 IVM       0.182000
    123 H37         31.5450    94.4650    32.3010 ha         1 IVM       0.168000
    124 H38         32.3000    96.4450    34.5820 ha         1 IVM       0.181000
    125 H40         29.4250    93.9550    33.7270 h1         1 IVM       0.060200
    126 H40A        28.9830    95.3050    32.6650 h1         1 IVM       0.060200
    127 H41         28.9180    94.8710    36.3130 h1         1 IVM       0.066700
    128 H42         27.8310    96.3350    37.6620 h1         1 IVM       0.050700
    129 H44         27.8120    99.6230    35.4410 ha         1 IVM       0.185000
    130 H45         28.7290    97.6920    33.7830 hc         1 IVM       0.106700
    131 H48         25.9920    99.5360    36.9270 hc         1 IVM       0.045367
    132 H48A        25.0850    98.0260    36.7560 hc         1 IVM       0.045367
    133 H48B        26.1120    98.2670    38.1610 hc         1 IVM       0.045367
    134 C23         39.6140    96.9290    34.4470 c3         1 IVM       0.146900
    135 O11         30.8870    99.4300    35.4560 o          1 IVM      -0.505000
    136 C28         43.0350    95.5650    35.9270 c3         1 IVM       0.150900
@<TRIPOS>BOND
     1     1     3 1   
     2     1    60 1   
     3     1    61 1   
     4     1    62 1   
     5     2     9 1   
     6     2    11 1   
     7     3     5 1   
     8     3    63 1   
     9     3    64 1   
    10     4    32 1   
    11     4    33 1   
    12     5     7 1   
    13     5     9 1   
    14     5    65 1   
    15     6    35 1   
    16     6   134 1   
    17     7    66 1   
    18     7    67 1   
    19     7    68 1   
    20     8    36 1   
    21     8    37 1   
    22     9    17 1   
    23     9    69 1   
    24    10    39 1   
    25    10   136 1   
    26    11    13 1   
    27    11    21 1   
    28    11    27 1   
    29    12    40 1   
    30    12    70 1   
    31    13    15 1   
    32    13    71 1   
    33    13    72 1   
    34    14    37 1   
    35    14    41 1   
    36    15    17 1   
    37    15    73 1   
    38    15    74 1   
    39    16    33 1   
    40    16    43 1   
    41    17    19 1   
    42    17    75 1   
    43    18    51 1   
    44    18    52 1   
    45    19    76 1   
    46    19    77 1   
    47    19    78 1   
    48    20    53 1   
    49    20    79 1   
    50    21    22 1   
    51    21    80 1   
    52    21    81 1   
    53    22    23 1   
    54    22    24 1   
    55    22    82 1   
    56    23    57 1   
    57    24    26 1   
    58    24    83 1   
    59    24    84 1   
    60    25    58 1   
    61    25    85 1   
    62    26    27 1   
    63    26    28 1   
    64    26    86 1   
    65    28    29 1   
    66    28    87 1   
    67    28    88 1   
    68    29    30 2   
    69    29    89 1   
    70    30    31 1   
    71    30    32 1   
    72    31    90 1   
    73    31    91 1   
    74    31    92 1   
    75    32    45 1   
    76    32    93 1   
    77    33    34 1   
    78    33    94 1   
    79    34    35 1   
    80    34    95 1   
    81    34    96 1   
    82    35    36 1   
    83    35    97 1   
    84    36    43 1   
    85    36   101 1   
    86    37    38 1   
    87    37   102 1   
    88    38    39 1   
    89    38   103 1   
    90    38   104 1   
    91    39    40 1   
    92    39   105 1   
    93    40    41 1   
    94    40   109 1   
    95    41    42 1   
    96    41   110 1   
    97    42   111 1   
    98    42   112 1   
    99    42   113 1   
   100    43    44 1   
   101    43   114 1   
   102    44   115 1   
   103    44   116 1   
   104    44   117 1   
   105    45    46 1   
   106    45    47 1   
   107    45   118 1   
   108    46   119 1   
   109    46   120 1   
   110    46   121 1   
   111    47    48 2   
   112    47   122 1   
   113    48    49 1   
   114    48   123 1   
   115    49    50 2   
   116    49   124 1   
   117    50    51 1   
   118    50    58 1   
   119    51   125 1   
   120    51   126 1   
   121    52    53 1   
   122    52    58 1   
   123    52   127 1   
   124    53    54 1   
   125    53   128 1   
   126    54    55 2   
   127    54    59 1   
   128    55    56 1   
   129    55   129 1   
   130    56    57 1   
   131    56    58 1   
   132    56   130 1   
   133    57   135 2   
   134    59   131 1   
   135    59   132 1   
   136    59   133 1   
   137    98   134 1   
   138    99   134 1   
   139   100   134 1   
   140   106   136 1   
   141   107   136 1   
   142   108   136 1   
@<TRIPOS>SUBSTRUCTURE
     1 IVM         1 TEMP              0 ****  ****    0 ROOT
