@<TRIPOS>MOLECULE
IVN
   59    62     1     0     0
SMALL
abcg2


@<TRIPOS>ATOM
      1 C4           8.7470     1.6190    19.8270 cp         1 IVN       0.274500
      2 C5           8.2890     1.4510    21.1280 ca         1 IVN      -0.289000
      3 C6           7.2910     0.4950    21.2900 ca         1 IVN       0.377300
      4 N1           6.7860    -0.2110    20.3080 nb         1 IVN      -0.359000
      5 N3           8.2410     0.9190    18.8120 nb         1 IVN      -0.273000
      6 C           15.4590     5.9600    18.9680 c          1 IVN       0.722000
      7 OXT         16.6180     5.5050    18.8940 o          1 IVN      -0.726000
      8 CA          14.3260     4.9390    19.2580 c3         1 IVN       0.028500
      9 N           14.7500     3.5850    18.9420 n8         1 IVN      -1.008200
     10 CB          13.0420     5.2800    18.4900 c3         1 IVN      -0.026100
     11 CG          11.9170     4.3460    18.8220 ca         1 IVN      -0.008300
     12 CD2         11.1690     4.5170    19.9880 ca         1 IVN      -0.129000
     13 CE2         10.1500     3.6420    20.3240 ca         1 IVN      -0.073500
     14 CD1         11.6010     3.2630    18.0040 ca         1 IVN      -0.129000
     15 CE1         10.5740     2.3920    18.3270 ca         1 IVN      -0.073500
     16 CZ           9.8340     2.5630    19.4970 cp         1 IVN      -0.210500
     17 C2           7.2820     0.0400    19.0870 ca         1 IVN       0.423900
     18 NAB          6.7490    -0.6350    18.0580 nv         1 IVN      -1.078900
     19 OAX          6.8330     0.2960    22.5350 os         1 IVN      -0.449300
     20 CBJ          5.9370    -0.7700    22.7550 c3         1 IVN       0.167600
     21 CBL          5.9420    -0.9750    24.2680 c3         1 IVN       0.308000
     22 F1           7.1420    -1.3570    24.7060 f          1 IVN      -0.104333
     23 F3           5.6080     0.1340    24.9310 f          1 IVN      -0.104333
     24 F2           5.0650    -1.9230    24.6040 f          1 IVN      -0.104333
     25 CBG          4.5360    -0.4750    22.2770 ca         1 IVN      -0.105300
     26 CAP          4.0440     0.8240    22.3570 ca         1 IVN      -0.061000
     27 CAJ          2.7370     1.1260    22.0170 ca         1 IVN      -0.102000
     28 CBB          1.9010     0.1050    21.5960 ca         1 IVN       0.134000
     29 CL1          0.2620     0.4590    21.1770 cl         1 IVN      -0.193000
     30 CAR          2.3620    -1.1930    21.4880 ca         1 IVN      -0.096000
     31 CBH          3.6790    -1.4780    21.8240 ca         1 IVN       0.055800
     32 NBK          4.1110    -2.8160    21.6880 na         1 IVN       0.202000
     33 NAW          3.4590    -3.8000    22.3230 nc         1 IVN      -0.508800
     34 CAZ          4.0430    -4.9180    21.9410 cd         1 IVN       0.256300
     35 CAA          3.5960    -6.2440    22.4500 c3         1 IVN      -0.118400
     36 CAK          5.0880    -4.6510    21.0290 cd         1 IVN      -0.232000
     37 CAQ          5.0940    -3.2900    20.8880 cc         1 IVN      -0.154000
     38 H1           8.6970     1.9830    21.9740 ha         1 IVN       0.153000
     39 H3          14.0970     5.0610    20.3320 h1         1 IVN      -0.002300
     40 H7          13.2500     5.2410    17.4180 hc         1 IVN       0.062200
     41 H8          12.7490     6.3030    18.7290 hc         1 IVN       0.062200
     42 H9          11.3820     5.3550    20.6410 ha         1 IVN       0.123000
     43 H10          9.5840     3.8250    21.2290 ha         1 IVN       0.108500
     44 H11         12.1650     3.1040    17.0920 ha         1 IVN       0.123000
     45 H12         10.3480     1.5660    17.6670 ha         1 IVN       0.108500
     46 H13          7.1640    -0.5590    17.1470 hn         1 IVN       0.499000
     47 H14          6.0880    -1.3750    18.2190 hn         1 IVN       0.499000
     48 H15          6.3240    -1.6890    22.3080 h1         1 IVN       0.101700
     49 H16          4.6840     1.6280    22.6940 ha         1 IVN       0.142000
     50 H17          2.3760     2.1420    22.0910 ha         1 IVN       0.136000
     51 H18          1.7150    -1.9860    21.1380 ha         1 IVN       0.148000
     52 H19          2.7970    -6.1330    23.1810 hc         1 IVN       0.046367
     53 H20          3.2280    -6.8730    21.6390 hc         1 IVN       0.046367
     54 H21          4.4190    -6.7810    22.9240 hc         1 IVN       0.046367
     55 H22          5.7380    -5.3600    20.5430 ha         1 IVN       0.145000
     56 H23          5.7040    -2.6310    20.2920 h4         1 IVN       0.171000
     57 H4          15.7230     3.4930    19.2020 hn         1 IVN       0.387500
     58 O           15.1190     7.1550    18.8780 o          1 IVN      -0.726000
     59 H5          14.2280     2.9160    19.4920 hn         1 IVN       0.387500
@<TRIPOS>BOND
     1     1     2 ar  
     2     1     5 ar  
     3     1    16 1   
     4     2     3 ar  
     5     2    38 1   
     6     3     4 ar  
     7     3    19 1   
     8     4    17 ar  
     9     5    17 ar  
    10     6     7 1   
    11     6     8 1   
    12     6    58 1   
    13     8     9 1   
    14     8    10 1   
    15     8    39 1   
    16     9    57 1   
    17     9    59 1   
    18    10    11 1   
    19    10    40 1   
    20    10    41 1   
    21    11    12 ar  
    22    11    14 ar  
    23    12    13 ar  
    24    12    42 1   
    25    13    16 ar  
    26    13    43 1   
    27    14    15 ar  
    28    14    44 1   
    29    15    16 ar  
    30    15    45 1   
    31    17    18 1   
    32    18    46 1   
    33    18    47 1   
    34    19    20 1   
    35    20    21 1   
    36    20    25 1   
    37    20    48 1   
    38    21    22 1   
    39    21    23 1   
    40    21    24 1   
    41    25    26 ar  
    42    25    31 ar  
    43    26    27 ar  
    44    26    49 1   
    45    27    28 ar  
    46    27    50 1   
    47    28    29 1   
    48    28    30 ar  
    49    30    31 ar  
    50    30    51 1   
    51    31    32 1   
    52    32    33 1   
    53    32    37 1   
    54    33    34 2   
    55    34    35 1   
    56    34    36 1   
    57    35    52 1   
    58    35    53 1   
    59    35    54 1   
    60    36    37 2   
    61    36    55 1   
    62    37    56 1   
@<TRIPOS>SUBSTRUCTURE
     1 IVN         1 TEMP              0 ****  ****    0 ROOT
