@<TRIPOS>MOLECULE
IVN
   59    62     1     0     0
SMALL
No Charge or Current Charge


@<TRIPOS>ATOM
      1 C4           8.9230     1.0150    19.8770 cp         1 IVN       0.274500
      2 C5           8.4980     0.8200    21.2130 ca         1 IVN      -0.289000
      3 C6           7.6030    -0.2190    21.4870 ca         1 IVN       0.377300
      4 N1           7.1670    -1.0360    20.5090 nb         1 IVN      -0.359000
      5 N3           8.4740     0.1870    18.9140 nb         1 IVN      -0.273000
      6 C           14.7810     6.6800    18.8640 c          1 IVN       0.722000
      7 OXT         15.4320     7.1550    19.7870 o          1 IVN      -0.726000
      8 CA          13.9350     5.3630    19.1520 c3         1 IVN       0.028500
      9 N           14.6880     4.0570    19.0950 n8         1 IVN      -1.008200
     10 CB          12.6510     5.2890    18.2780 c3         1 IVN      -0.026100
     11 CG          11.6900     4.1760    18.6930 ca         1 IVN      -0.008300
     12 CD2         10.9660     4.2740    19.8950 ca         1 IVN      -0.129000
     13 CE2         10.0760     3.2570    20.2780 ca         1 IVN      -0.073500
     14 CD1         11.5030     3.0480    17.8750 ca         1 IVN      -0.129000
     15 CE1         10.6120     2.0300    18.2550 ca         1 IVN      -0.073500
     16 CZ           9.8770     2.1060    19.4700 cp         1 IVN      -0.210500
     17 C2           7.6280    -0.7790    19.2860 ca         1 IVN       0.423900
     18 NAB          7.2000    -1.6120    18.3150 nv         1 IVN      -1.078900
     19 OAX          7.2140    -0.4030    22.7940 os         1 IVN      -0.449300
     20 CBJ          6.0490    -1.1960    23.1290 c3         1 IVN       0.167600
     21 CBL          6.0470    -1.4660    24.6640 c3         1 IVN       0.308000
     22 F1           7.0990    -2.2430    25.0140 f          1 IVN      -0.104333
     23 F3           6.1270    -0.3200    25.3810 f          1 IVN      -0.104333
     24 F2           4.9190    -2.1090    25.0430 f          1 IVN      -0.104333
     25 CBG          4.7910    -0.4520    22.6340 ca         1 IVN      -0.105300
     26 CAP          4.6190     0.9100    22.9710 ca         1 IVN      -0.061000
     27 CAJ          3.4950     1.6240    22.5240 ca         1 IVN      -0.102000
     28 CBB          2.5320     0.9880    21.7300 ca         1 IVN       0.134000
     29 Cl1          1.1270     1.8830    21.1670 cl         1 IVN      -0.193000
     30 CAR          2.6910    -0.3590    21.3790 ca         1 IVN      -0.096000
     31 CBH          3.8120    -1.0890    21.8240 ca         1 IVN       0.055800
     32 NBK          3.9320    -2.4230    21.4290 na         1 IVN       0.202000
     33 NAW          3.7560    -3.4390    22.3410 nc         1 IVN      -0.508800
     34 CAZ          3.8900    -4.5020    21.5710 cd         1 IVN       0.256300
     35 CAA          3.7880    -5.8840    22.1500 c3         1 IVN      -0.118400
     36 CAK          4.1180    -4.1700    20.2130 cd         1 IVN      -0.232000
     37 CAQ          4.1320    -2.8070    20.1130 cc         1 IVN      -0.154000
     38 H1           8.8550     1.4450    22.0220 ha         1 IVN       0.153000
     39 H3          13.5940     5.4540    20.1930 h1         1 IVN      -0.002300
     40 H7          12.9370     5.1760    17.2260 hc         1 IVN       0.062200
     41 H8          12.1280     6.2520    18.3440 hc         1 IVN       0.062200
     42 H9          11.0910     5.1450    20.5340 ha         1 IVN       0.123000
     43 H10          9.5250     3.3810    21.2070 ha         1 IVN       0.108500
     44 H11         12.0510     2.9560    16.9400 ha         1 IVN       0.123000
     45 H12         10.5010     1.1700    17.5990 ha         1 IVN       0.108500
     46 H13          7.7020    -1.6080    17.4310 hn         1 IVN       0.499000
     47 H14          6.7910    -2.4990    18.5970 hn         1 IVN       0.499000
     48 H15          6.1280    -2.1780    22.6460 h1         1 IVN       0.101700
     49 H16          5.3640     1.4240    23.5740 ha         1 IVN       0.142000
     50 H17          3.3740     2.6710    22.7890 ha         1 IVN       0.136000
     51 H18          1.9390    -0.8410    20.7590 ha         1 IVN       0.148000
     52 H19          2.7960    -6.0540    22.5840 hc         1 IVN       0.046367
     53 H20          3.9530    -6.6460    21.3800 hc         1 IVN       0.046367
     54 H21          4.5350    -6.0350    22.9380 hc         1 IVN       0.046367
     55 H22          4.2500    -4.8750    19.3990 ha         1 IVN       0.145000
     56 H23          4.2620    -2.1190    19.2860 h4         1 IVN       0.171000
     57 H4          15.4140     4.0580    19.8230 hn         1 IVN       0.387500
     58 O           14.7530     7.1810    17.7460 o          1 IVN      -0.726000
     59 H5          14.0570     3.2980    19.3770 hn         1 IVN       0.387500
@<TRIPOS>BOND
     1     1     2 ar  
     2     1     5 ar  
     3     1    16 1   
     4     2     3 ar  
     5     2    38 1   
     6     3     4 ar  
     7     3    19 1   
     8     4    17 ar  
     9     5    17 ar  
    10     6     7 1   
    11     6     8 1   
    12     6    58 1   
    13     8     9 1   
    14     8    10 1   
    15     8    39 1   
    16     9    57 1   
    17     9    59 1   
    18    10    11 1   
    19    10    40 1   
    20    10    41 1   
    21    11    12 ar  
    22    11    14 ar  
    23    12    13 ar  
    24    12    42 1   
    25    13    16 ar  
    26    13    43 1   
    27    14    15 ar  
    28    14    44 1   
    29    15    16 ar  
    30    15    45 1   
    31    17    18 1   
    32    18    46 1   
    33    18    47 1   
    34    19    20 1   
    35    20    21 1   
    36    20    25 1   
    37    20    48 1   
    38    21    22 1   
    39    21    23 1   
    40    21    24 1   
    41    25    26 ar  
    42    25    31 ar  
    43    26    27 ar  
    44    26    49 1   
    45    27    28 ar  
    46    27    50 1   
    47    28    29 1   
    48    28    30 ar  
    49    30    31 ar  
    50    30    51 1   
    51    31    32 1   
    52    32    33 1   
    53    32    37 1   
    54    33    34 2   
    55    34    35 1   
    56    34    36 1   
    57    35    52 1   
    58    35    53 1   
    59    35    54 1   
    60    36    37 2   
    61    36    55 1   
    62    37    56 1   
@<TRIPOS>SUBSTRUCTURE
     1 IVN         1 TEMP              0 ****  ****    0 ROOT
