@<TRIPOS>MOLECULE
IVO
   24    25     1     0     0
SMALL
bcc


@<TRIPOS>ATOM
      1 O15        -16.3810     5.4950    21.4850 o          1 IVO      -0.801800
      2 C10        -15.5420     5.9070    20.6840 c          1 IVO       0.933600
      3 O14        -15.2290     7.1040    20.4540 o          1 IVO      -0.801800
      4 C1         -14.7380     4.8980    19.8230 c6         1 IVO      -0.147000
      5 N6         -15.1540     3.5150    19.9570 na         1 IVO      -0.117900
      6 C9         -15.3580     2.8020    21.1100 cc         1 IVO      -0.203600
      7 C8         -15.5760     1.5160    20.7130 cd         1 IVO       0.245200
      8 N7         -15.5070     1.4230    19.3510 nd         1 IVO      -0.715000
      9 C5         -15.2410     2.6340    18.9360 cc         1 IVO       0.323800
     10 C4         -15.0370     3.0060    17.4980 c6         1 IVO       0.141800
     11 O12        -14.4010     1.9670    16.8020 oh         1 IVO      -0.593800
     12 C3         -14.2010     4.2710    17.4270 c6         1 IVO       0.140100
     13 O11        -14.1750     4.7030    16.0930 oh         1 IVO      -0.595800
     14 C2         -14.8250     5.3200    18.3430 c6         1 IVO       0.127100
     15 O13        -14.1510     6.5300    18.1550 oh         1 IVO      -0.660800
     16 H2         -13.6860     4.9660    20.1260 h1         1 IVO       0.061700
     17 H3         -15.3320     3.2550    22.0840 h4         1 IVO       0.190000
     18 H4         -15.7820     0.6580    21.3340 h4         1 IVO       0.017100
     19 H5         -16.0200     3.2260    17.0510 h1         1 IVO       0.052700
     20 H6         -14.7910     1.1370    17.0970 ho         1 IVO       0.422000
     21 H7         -13.1860     4.0470    17.7950 h1         1 IVO       0.042700
     22 H8         -13.6870     5.5330    16.0610 ho         1 IVO       0.416000
     23 H9         -15.8920     5.4130    18.0730 h1         1 IVO       0.044700
     24 H10        -14.4290     7.0690    18.9330 ho         1 IVO       0.479000
@<TRIPOS>BOND
     1     1     2 1   
     2     2     3 1   
     3     2     4 1   
     4     4     5 1   
     5     4    14 1   
     6     4    16 1   
     7     5     6 1   
     8     5     9 1   
     9     6     7 2   
    10     6    17 1   
    11     7     8 1   
    12     7    18 1   
    13     8     9 2   
    14     9    10 1   
    15    10    11 1   
    16    10    12 1   
    17    10    19 1   
    18    11    20 1   
    19    12    13 1   
    20    12    14 1   
    21    12    21 1   
    22    13    22 1   
    23    14    15 1   
    24    14    23 1   
    25    15    24 1   
@<TRIPOS>SUBSTRUCTURE
     1 IVO         1 TEMP              0 ****  ****    0 ROOT
