@<TRIPOS>MOLECULE
IVO
   24    25     1     0     0
SMALL
No Charge or Current Charge


@<TRIPOS>ATOM
      1 O15        -16.8610     5.6250    20.6250 o          1 IVO      -0.696500
      2 C10        -15.6660     5.8860    20.6110 c          1 IVO       0.723000
      3 O14        -15.1340     6.5200    21.5100 o          1 IVO      -0.696500
      4 C1         -14.7450     4.9530    19.7890 c6         1 IVO      -0.117700
      5 N6         -15.0930     3.5140    19.9640 na         1 IVO      -0.096500
      6 C9         -15.2200     2.8380    21.1580 cc         1 IVO      -0.171000
      7 C8         -15.4790     1.5370    20.8120 cd         1 IVO       0.179900
      8 N7         -15.4960     1.3870    19.4400 nd         1 IVO      -0.715000
      9 C5         -15.2640     2.5990    18.9450 cc         1 IVO       0.323800
     10 C4         -15.1280     2.9630    17.4730 c6         1 IVO       0.165000
     11 O12        -14.6080     1.8390    16.7190 oh         1 IVO      -0.716000
     12 C3         -14.2110     4.2260    17.3600 c6         1 IVO       0.163300
     13 O11        -14.1380     4.7280    16.0130 oh         1 IVO      -0.658000
     14 C2         -14.7360     5.3710    18.2870 c6         1 IVO       0.150300
     15 O13        -13.9240     6.5480    18.0890 oh         1 IVO      -0.783000
     16 H2         -13.7280     5.0810    20.1850 h1         1 IVO       0.061700
     17 H3         -15.1230     3.3100    22.1270 h4         1 IVO       0.172000
     18 H4         -15.6440     0.6970    21.4760 h4         1 IVO       0.017100
     19 H5         -16.1250     3.2310    17.0940 h1         1 IVO       0.052700
     20 H6         -14.8150     1.0510    17.2800 ho         1 IVO       0.521000
     21 H7         -13.2030     3.9500    17.7040 h1         1 IVO       0.042700
     22 H8         -13.8690     5.6690    16.1380 ho         1 IVO       0.455000
     23 H9         -15.7750     5.5810    17.9880 h1         1 IVO       0.044700
     24 H10        -14.3350     7.2910    18.5970 ho         1 IVO       0.578000
@<TRIPOS>BOND
     1     1     2 1   
     2     2     3 1   
     3     2     4 1   
     4     4     5 1   
     5     4    14 1   
     6     4    16 1   
     7     5     6 1   
     8     5     9 1   
     9     6     7 2   
    10     6    17 1   
    11     7     8 1   
    12     7    18 1   
    13     8     9 2   
    14     9    10 1   
    15    10    11 1   
    16    10    12 1   
    17    10    19 1   
    18    11    20 1   
    19    12    13 1   
    20    12    14 1   
    21    12    21 1   
    22    13    22 1   
    23    14    15 1   
    24    14    23 1   
    25    15    24 1   
@<TRIPOS>SUBSTRUCTURE
     1 IVO         1 TEMP              0 ****  ****    0 ROOT
