@<TRIPOS>MOLECULE
IVP
   56    59     1     0     0
SMALL
No Charge or Current Charge


@<TRIPOS>ATOM
      1 C1          93.8580   -11.7180     7.1560 c          1 IVP       0.576600
      2 N2          93.3500   -11.4930     8.3890 ns         1 IVP      -0.427400
      3 C3          93.5240   -12.3200     9.4690 cc         1 IVP       0.472900
      4 N4          94.2200   -13.4570     9.4520 nd         1 IVP      -0.628100
      5 C5          94.7270   -10.2070    11.5370 c          1 IVP       0.656100
      6 C6          94.6470   -12.9730     7.0550 ca         1 IVP      -0.200600
      7 N7          93.3800   -10.4560    11.1660 n          1 IVP      -0.432800
      8 C8          94.7860   -13.7760     8.2060 ca         1 IVP       0.182400
      9 N9          95.5830   -11.3000    11.4630 ns         1 IVP      -0.172000
     10 C10         92.9010   -11.8120    10.7520 c3         1 IVP       0.057700
     11 O11         93.6740   -10.9450     6.2290 o          1 IVP      -0.530000
     12 O12         95.0910    -9.0930    11.8880 o          1 IVP      -0.604100
     13 C13         92.3530    -9.4010    11.3270 c3         1 IVP       0.156300
     14 C14         96.9520   -11.4680    11.8040 ca         1 IVP      -0.038000
     15 C15         91.6620    -9.4770    12.6830 ca         1 IVP      -0.157300
     16 C16         90.4190    -9.6610    15.2150 ca         1 IVP       0.148100
     17 C17         99.6690   -11.9540    12.4460 ca         1 IVP      -0.085300
     18 C18         95.2530   -13.3580     5.8390 ca         1 IVP      -0.041000
     19 C19         97.5960   -12.6360    11.3540 ca         1 IVP      -0.122000
     20 C20         97.6790   -10.5460    12.5900 ca         1 IVP      -0.122000
     21 C21         92.2440    -8.8580    13.8060 ca         1 IVP      -0.056000
     22 C22         90.4510   -10.1830    12.8320 ca         1 IVP      -0.056000
     23 C23         89.8360   -10.2710    14.0930 ca         1 IVP      -0.176500
     24 C24         91.6290    -8.9480    15.0670 ca         1 IVP      -0.176500
     25 C25         99.0280   -10.7890    12.9060 ca         1 IVP      -0.092000
     26 C26         98.9450   -12.8780    11.6700 ca         1 IVP      -0.092000
     27 C27         95.5340   -14.9650     8.1190 ca         1 IVP      -0.103000
     28 O28         89.7750    -9.7910    16.4290 os         1 IVP      -0.340100
     29 C29        101.1260   -12.2170    12.8000 c3         1 IVP      -0.044800
     30 C30         90.3210    -9.2470    17.6440 c3         1 IVP       0.147900
     31 C31         95.9990   -14.5470     5.7710 ca         1 IVP      -0.131000
     32 C32         96.1400   -15.3530     6.9120 ca         1 IVP      -0.075000
     33 H1          92.8230   -10.6390     8.5020 hn         1 IVP       0.341500
     34 H2          95.1500   -12.1430    11.1090 hn         1 IVP       0.143000
     35 H3          91.8120   -11.7990    10.6190 h1         1 IVP       0.081700
     36 H4          93.1100   -12.5240    11.5610 h1         1 IVP       0.081700
     37 H5          92.8060    -8.4090    11.2010 h1         1 IVP       0.070700
     38 H6          91.6030    -9.5030    10.5310 h1         1 IVP       0.070700
     39 H7          95.1480   -12.7390     4.9490 ha         1 IVP       0.136000
     40 H8          97.0490   -13.3620    10.7540 ha         1 IVP       0.121000
     41 H9          97.2130    -9.6450    12.9780 ha         1 IVP       0.121000
     42 H10         93.1790    -8.3110    13.7040 ha         1 IVP       0.121000
     43 H11         89.9890   -10.6680    11.9740 ha         1 IVP       0.121000
     44 H12         88.9030   -10.8200    14.2030 ha         1 IVP       0.124000
     45 H13         92.1060    -8.4620    15.9130 ha         1 IVP       0.124000
     46 H14         99.5740   -10.0710    13.5160 ha         1 IVP       0.114000
     47 H15         99.4240   -13.7880    11.3120 ha         1 IVP       0.114000
     48 H16         95.6460   -15.5930     8.9990 ha         1 IVP       0.132000
     49 H17        101.2090   -12.7090    13.7760 hc         1 IVP       0.042700
     50 H18        101.6110   -12.8630    12.0570 hc         1 IVP       0.042700
     51 H19        101.7000   -11.2830    12.8460 hc         1 IVP       0.042700
     52 H20         89.6610    -9.4720    18.4920 h1         1 IVP       0.041700
     53 H21         91.3080    -9.6810    17.8560 h1         1 IVP       0.041700
     54 H22         90.4230    -8.1550    17.5720 h1         1 IVP       0.041700
     55 H23         96.4680   -14.8440     4.8340 ha         1 IVP       0.120000
     56 H24         96.7160   -16.2760     6.8630 ha         1 IVP       0.118000
@<TRIPOS>BOND
     1     1     2 1   
     2     1     6 1   
     3     1    11 2   
     4     2     3 1   
     5     2    33 1   
     6     3     4 2   
     7     3    10 1   
     8     4     8 1   
     9     5     7 1   
    10     5     9 1   
    11     5    12 2   
    12     6     8 ar  
    13     6    18 ar  
    14     7    10 1   
    15     7    13 1   
    16     8    27 ar  
    17     9    14 1   
    18     9    34 1   
    19    10    35 1   
    20    10    36 1   
    21    13    15 1   
    22    13    37 1   
    23    13    38 1   
    24    14    19 ar  
    25    14    20 ar  
    26    15    21 ar  
    27    15    22 ar  
    28    16    23 ar  
    29    16    24 ar  
    30    16    28 1   
    31    17    25 ar  
    32    17    26 ar  
    33    17    29 1   
    34    18    31 ar  
    35    18    39 1   
    36    19    26 ar  
    37    19    40 1   
    38    20    25 ar  
    39    20    41 1   
    40    21    24 ar  
    41    21    42 1   
    42    22    23 ar  
    43    22    43 1   
    44    23    44 1   
    45    24    45 1   
    46    25    46 1   
    47    26    47 1   
    48    27    32 ar  
    49    27    48 1   
    50    28    30 1   
    51    29    49 1   
    52    29    50 1   
    53    29    51 1   
    54    30    52 1   
    55    30    53 1   
    56    30    54 1   
    57    31    32 ar  
    58    31    55 1   
    59    32    56 1   
@<TRIPOS>SUBSTRUCTURE
     1 IVP         1 TEMP              0 ****  ****    0 ROOT
