@<TRIPOS>MOLECULE
IVP
   56    59     1     0     0
SMALL
bcc


@<TRIPOS>ATOM
      1 C1          95.2690   -12.5600     7.7850 c          1 IVP       0.719100
      2 N2          95.1060   -12.3030     9.1300 ns         1 IVP      -0.494400
      3 C3          93.9800   -12.6010     9.8380 cc         1 IVP       0.472900
      4 N4          92.9440   -13.1520     9.3210 nd         1 IVP      -0.628100
      5 C5          95.5910   -10.4550    11.9370 c          1 IVP       0.790100
      6 C6          94.1040   -13.1940     7.1790 ca         1 IVP      -0.200600
      7 N7          94.3440   -10.9020    11.5910 n          1 IVP      -0.499800
      8 C8          92.9860   -13.4700     7.9810 ca         1 IVP       0.182400
      9 N9          96.5840   -11.4090    11.9730 ns         1 IVP      -0.498100
     10 C10         93.9810   -12.2710    11.3090 c3         1 IVP       0.057700
     11 O11         96.3020   -12.2770     7.2090 o          1 IVP      -0.605500
     12 O12         95.8210    -9.2790    12.1600 o          1 IVP      -0.604100
     13 C13         93.2670    -9.9400    11.3920 c3         1 IVP       0.156300
     14 C14         97.9130   -11.1230    12.3410 ca         1 IVP       0.054600
     15 C15         92.1670   -10.0840    12.4090 ca         1 IVP      -0.157300
     16 C16         90.1180   -10.3550    14.3090 ca         1 IVP       0.148100
     17 C17        100.6090   -10.6950    13.0300 ca         1 IVP      -0.085300
     18 C18         94.1020   -13.5310     5.8230 ca         1 IVP      -0.059000
     19 C19         98.5570   -11.9620    13.2450 ca         1 IVP      -0.140000
     20 C20         98.6270   -10.0730    11.7710 ca         1 IVP      -0.140000
     21 C21         92.3970    -9.8130    13.7520 ca         1 IVP      -0.074000
     22 C22         90.8930   -10.5000    12.0340 ca         1 IVP      -0.074000
     23 C23         89.8760   -10.6340    12.9640 ca         1 IVP      -0.194500
     24 C24         91.3920    -9.9440    14.7020 ca         1 IVP      -0.194500
     25 C25         99.9510    -9.8650    12.1240 ca         1 IVP      -0.110000
     26 C26         99.8880   -11.7540    13.5730 ca         1 IVP      -0.110000
     27 C27         91.8710   -14.0880     7.4010 ca         1 IVP      -0.121000
     28 O28         89.0750   -10.5050    15.1470 os         1 IVP      -0.316900
     29 C29        102.0370   -10.4460    13.4160 c3         1 IVP      -0.044800
     30 C30         89.2690   -10.2420    16.5210 c3         1 IVP       0.124700
     31 C31         92.9980   -14.1410     5.2680 ca         1 IVP      -0.149000
     32 C32         91.8810   -14.4190     6.0640 ca         1 IVP      -0.093000
     33 H1          95.8970   -11.8870     9.6100 hn         1 IVP       0.341500
     34 H2          96.3260   -12.3760    12.0920 hn         1 IVP       0.309500
     35 H3          92.9700   -12.4500    11.6760 h1         1 IVP       0.081700
     36 H4          94.6030   -12.9910    11.8450 h1         1 IVP       0.081700
     37 H5          93.6930    -8.9410    11.4250 h1         1 IVP       0.070700
     38 H6          92.8580   -10.0720    10.3860 h1         1 IVP       0.070700
     39 H7          94.9700   -13.3120     5.2160 ha         1 IVP       0.154000
     40 H8          98.0160   -12.7890    13.6910 ha         1 IVP       0.139000
     41 H9          98.1640    -9.4270    11.0380 ha         1 IVP       0.139000
     42 H10         93.3780    -9.4860    14.0770 ha         1 IVP       0.139000
     43 H11         90.6880   -10.7260    10.9930 ha         1 IVP       0.139000
     44 H12         88.8910   -10.9590    12.6540 ha         1 IVP       0.142000
     45 H13         91.6180    -9.7200    15.7350 ha         1 IVP       0.142000
     46 H14        100.4900    -9.0420    11.6690 ha         1 IVP       0.132000
     47 H15        100.3680   -12.4280    14.2730 ha         1 IVP       0.132000
     48 H16         91.0100   -14.3000     8.0220 ha         1 IVP       0.150000
     49 H17        102.1010    -9.7930    14.2890 hc         1 IVP       0.042700
     50 H18        102.5500   -11.3740    13.6710 hc         1 IVP       0.042700
     51 H19        102.5920    -9.9640    12.6120 hc         1 IVP       0.042700
     52 H20         88.3140   -10.4250    17.0090 h1         1 IVP       0.041700
     53 H21         90.0200   -10.9010    16.9640 h1         1 IVP       0.041700
     54 H22         89.5620    -9.2040    16.7020 h1         1 IVP       0.041700
     55 H23         92.9930   -14.4040     4.2190 ha         1 IVP       0.138000
     56 H24         91.0160   -14.8980     5.6240 ha         1 IVP       0.136000
@<TRIPOS>BOND
     1     1     2 1   
     2     1     6 1   
     3     1    11 2   
     4     2     3 1   
     5     2    33 1   
     6     3     4 2   
     7     3    10 1   
     8     4     8 1   
     9     5     7 1   
    10     5     9 1   
    11     5    12 2   
    12     6     8 ar  
    13     6    18 ar  
    14     7    10 1   
    15     7    13 1   
    16     8    27 ar  
    17     9    14 1   
    18     9    34 1   
    19    10    35 1   
    20    10    36 1   
    21    13    15 1   
    22    13    37 1   
    23    13    38 1   
    24    14    19 ar  
    25    14    20 ar  
    26    15    21 ar  
    27    15    22 ar  
    28    16    23 ar  
    29    16    24 ar  
    30    16    28 1   
    31    17    25 ar  
    32    17    26 ar  
    33    17    29 1   
    34    18    31 ar  
    35    18    39 1   
    36    19    26 ar  
    37    19    40 1   
    38    20    25 ar  
    39    20    41 1   
    40    21    24 ar  
    41    21    42 1   
    42    22    23 ar  
    43    22    43 1   
    44    23    44 1   
    45    24    45 1   
    46    25    46 1   
    47    26    47 1   
    48    27    32 ar  
    49    27    48 1   
    50    28    30 1   
    51    29    49 1   
    52    29    50 1   
    53    29    51 1   
    54    30    52 1   
    55    30    53 1   
    56    30    54 1   
    57    31    32 ar  
    58    31    55 1   
    59    32    56 1   
@<TRIPOS>SUBSTRUCTURE
     1 IVP         1 TEMP              0 ****  ****    0 ROOT
