@<TRIPOS>MOLECULE
IVQ
   56    61     1     0     0
SMALL
No Charge or Current Charge


@<TRIPOS>ATOM
      1 C4         -20.0000    10.6890   -17.7440 cc         1 IVQ       0.439900
      2 C5         -20.2700     9.3930   -17.4630 cd         1 IVQ      -0.344600
      3 C6         -21.5850     8.8110   -17.7340 c          1 IVQ       0.636600
      4 C8         -18.1730     9.9220   -16.9550 cd         1 IVQ       0.467800
      5 N1         -22.4470     9.7080   -18.2790 ns         1 IVQ      -0.475500
      6 N3         -20.9500    11.5270   -18.2880 n          1 IVQ      -0.360300
      7 CAG        -17.5350     5.4140   -16.9880 ca         1 IVQ      -0.095000
      8 CAE        -16.9370     4.5190   -17.8920 ca         1 IVQ      -0.103000
      9 CAD        -17.0530     4.7330   -19.2750 ca         1 IVQ      -0.098000
     10 CAF        -17.7750     5.8380   -19.7530 ca         1 IVQ      -0.103000
     11 CAH        -18.3740     6.7340   -18.8500 ca         1 IVQ      -0.095000
     12 CAV        -18.2510     6.5350   -17.4570 ca         1 IVQ      -0.112300
     13 N7         -19.0950     8.8750   -16.9330 na         1 IVQ      -0.110500
     14 O6         -21.9020     7.6560   -17.5110 o          1 IVQ      -0.531000
     15 C2         -22.2300    11.0200   -18.5790 c          1 IVQ       0.628000
     16 O2         -23.1210    11.6900   -19.0730 o          1 IVQ      -0.554000
     17 CAL        -20.6420    12.9500   -18.5830 c3         1 IVQ       0.116000
     18 CAK        -20.6900    13.8680   -17.3390 c3         1 IVQ      -0.095400
     19 CAA        -22.0770    13.9460   -16.6660 c3         1 IVQ      -0.090100
     20 N9         -18.7220    11.0310   -17.4320 nc         1 IVQ      -0.691000
     21 CAN        -16.7530     9.8690   -16.4720 c3         1 IVQ      -0.118000
     22 CAW        -15.9110     8.9300   -17.2740 cc         1 IVQ       0.391800
     23 NAP        -15.1940     7.8680   -16.7270 na         1 IVQ      -0.299600
     24 CBC        -14.6190     7.2030   -17.7640 ca         1 IVQ      -0.074200
     25 CAI        -13.8320     6.0390   -17.7690 ca         1 IVQ      -0.106000
     26 CAX        -13.4230     5.5930   -19.0370 ca         1 IVQ       0.078100
     27 OAT        -12.6580     4.5000   -19.2840 os         1 IVQ      -0.345100
     28 CAM        -12.6290     4.4490   -20.7550 c5         1 IVQ       0.372600
     29 OAU        -13.2540     5.6660   -21.2990 os         1 IVQ      -0.343100
     30 CAY        -13.7650     6.2620   -20.1910 ca         1 IVQ       0.032100
     31 CAJ        -14.5470     7.4330   -20.1730 ca         1 IVQ      -0.035000
     32 CBD        -14.9710     7.8800   -18.9070 ca         1 IVQ       0.067400
     33 NAS        -15.7700     8.9800   -18.6130 nd         1 IVQ      -0.546100
     34 H1         -23.3670     9.3590   -18.4890 hn         1 IVQ       0.344500
     35 H3         -16.3790     3.6630   -17.5200 ha         1 IVQ       0.116000
     36 H4         -16.5840     4.0440   -19.9740 ha         1 IVQ       0.117000
     37 H5         -17.8670     6.0040   -20.8230 ha         1 IVQ       0.116000
     38 H6         -18.9270     7.5830   -19.2440 ha         1 IVQ       0.115500
     39 H9         -19.6360    13.0050   -19.0200 h1         1 IVQ       0.072200
     40 H10        -21.3300    13.3390   -19.3440 h1         1 IVQ       0.072200
     41 H11        -19.9530    13.5250   -16.6030 hc         1 IVQ       0.051700
     42 H12        -20.3860    14.8780   -17.6400 hc         1 IVQ       0.051700
     43 H13        -22.0530    14.6520   -15.8270 hc         1 IVQ       0.036033
     44 H14        -22.8360    14.2880   -17.3800 hc         1 IVQ       0.036033
     45 H15        -22.3800    12.9670   -16.2770 hc         1 IVQ       0.036033
     46 H16        -16.7400     9.5790   -15.4170 hc         1 IVQ       0.084200
     47 H17        -16.3070    10.8680   -16.5180 hc         1 IVQ       0.084200
     48 H18        -15.1340     7.6310   -15.7450 hn         1 IVQ       0.356000
     49 H19        -13.5650     5.5090   -16.8580 ha         1 IVQ       0.138000
     50 H20        -13.2010     3.5760   -21.0910 h2         1 IVQ       0.065200
     51 H21        -11.5930     4.3770   -21.1040 h2         1 IVQ       0.065200
     52 H22        -14.8180     7.9550   -21.0850 ha         1 IVQ       0.150000
     53 CAO        -18.8700     7.4990   -16.4420 c3         1 IVQ       0.123900
     54 H2         -17.4330     5.2390   -15.9190 ha         1 IVQ       0.115500
     55 H7         -19.8270     7.0860   -16.1020 h1         1 IVQ       0.072200
     56 H8         -18.2220     7.5530   -15.5580 h1         1 IVQ       0.072200
@<TRIPOS>BOND
     1     1     2 2   
     2     1     6 1   
     3     1    20 1   
     4     2     3 1   
     5     2    13 1   
     6     3     5 1   
     7     3    14 2   
     8     4    13 1   
     9     4    20 2   
    10     4    21 1   
    11     5    15 1   
    12     5    34 1   
    13     6    15 1   
    14     6    17 1   
    15     7     8 ar  
    16     7    12 ar  
    17     7    54 1   
    18     8     9 ar  
    19     8    35 1   
    20     9    10 ar  
    21     9    36 1   
    22    10    11 ar  
    23    10    37 1   
    24    11    12 ar  
    25    11    38 1   
    26    12    53 1   
    27    13    53 1   
    28    15    16 2   
    29    17    18 1   
    30    17    39 1   
    31    17    40 1   
    32    18    19 1   
    33    18    41 1   
    34    18    42 1   
    35    19    43 1   
    36    19    44 1   
    37    19    45 1   
    38    21    22 1   
    39    21    46 1   
    40    21    47 1   
    41    22    23 1   
    42    22    33 2   
    43    23    24 1   
    44    23    48 1   
    45    24    25 ar  
    46    24    32 ar  
    47    25    26 ar  
    48    25    49 1   
    49    26    27 1   
    50    26    30 ar  
    51    27    28 1   
    52    28    29 1   
    53    28    50 1   
    54    28    51 1   
    55    29    30 1   
    56    30    31 ar  
    57    31    32 ar  
    58    31    52 1   
    59    32    33 1   
    60    53    55 1   
    61    53    56 1   
@<TRIPOS>SUBSTRUCTURE
     1 IVQ         1 TEMP              0 ****  ****    0 ROOT
