@<TRIPOS>MOLECULE
IVQ
   56    61     1     0     0
SMALL
abcg2


@<TRIPOS>ATOM
      1 C4         -19.9530    10.6440   -17.7590 cc         1 IVQ       0.439900
      2 C5         -20.2140     9.3490   -17.3920 cd         1 IVQ      -0.344600
      3 C6         -21.4780     8.7340   -17.6250 c          1 IVQ       0.636600
      4 C8         -18.1630     9.9080   -16.9130 cd         1 IVQ       0.467800
      5 N1         -22.3420     9.6350   -18.2370 ns         1 IVQ      -0.475500
      6 N3         -20.8810    11.4520   -18.3580 n          1 IVQ      -0.360300
      7 CAG        -17.9420     5.3010   -16.8550 ca         1 IVQ      -0.095000
      8 CAE        -17.5200     4.3230   -17.7410 ca         1 IVQ      -0.103000
      9 CAD        -17.4870     4.5850   -19.1060 ca         1 IVQ      -0.098000
     10 CAF        -17.8850     5.8290   -19.5700 ca         1 IVQ      -0.103000
     11 CAH        -18.3170     6.8070   -18.6810 ca         1 IVQ      -0.095000
     12 CAV        -18.3450     6.5520   -17.3170 ca         1 IVQ      -0.112300
     13 N7         -19.0410     8.8900   -16.8350 na         1 IVQ      -0.110500
     14 O6         -21.8240     7.5980   -17.3590 o          1 IVQ      -0.531000
     15 C2         -22.1320    10.9490   -18.6160 c          1 IVQ       0.628000
     16 O2         -23.0160    11.5900   -19.1470 o          1 IVQ      -0.554000
     17 CAL        -20.5410    12.8340   -18.6890 c3         1 IVQ       0.116000
     18 CAK        -20.5540    13.7630   -17.4810 c3         1 IVQ      -0.095400
     19 CAA        -21.8950    13.8390   -16.7660 c3         1 IVQ      -0.090100
     20 N9         -18.6880    10.9880   -17.4640 nc         1 IVQ      -0.691000
     21 CAN        -16.7530     9.8170   -16.4390 c3         1 IVQ      -0.118000
     22 CAW        -15.9450     8.8950   -17.2950 cc         1 IVQ       0.391800
     23 NAP        -15.2780     7.8300   -16.7880 na         1 IVQ      -0.299600
     24 CBC        -14.6760     7.1860   -17.8340 ca         1 IVQ      -0.074200
     25 CAI        -13.8730     6.0400   -17.8830 ca         1 IVQ      -0.106000
     26 CAX        -13.4630     5.7110   -19.1470 ca         1 IVQ       0.078100
     27 OAT        -12.7040     4.6510   -19.5240 os         1 IVQ      -0.345100
     28 CAM        -12.3610     4.8790   -20.8820 c5         1 IVQ       0.372600
     29 OAU        -13.2710     5.8440   -21.3790 os         1 IVQ      -0.343100
     30 CAY        -13.8100     6.4500   -20.2870 ca         1 IVQ       0.032100
     31 CAJ        -14.5890     7.5730   -20.2460 ca         1 IVQ      -0.035000
     32 CBD        -15.0300     7.9420   -18.9620 ca         1 IVQ       0.067400
     33 NAS        -15.8170     9.0010   -18.5890 nd         1 IVQ      -0.546100
     34 H1         -23.2700     9.2860   -18.4420 hn         1 IVQ       0.344500
     35 H3         -17.2090     3.3560   -17.3650 ha         1 IVQ       0.116000
     36 H4         -17.1500     3.8260   -19.7990 ha         1 IVQ       0.117000
     37 H5         -17.8570     6.0480   -20.6290 ha         1 IVQ       0.116000
     38 H6         -18.6170     7.7710   -19.0710 ha         1 IVQ       0.115500
     39 H9         -19.5530    12.8300   -19.1490 h1         1 IVQ       0.072200
     40 H10        -21.2480    13.1750   -19.4410 h1         1 IVQ       0.072200
     41 H11        -19.7740    13.4620   -16.7780 hc         1 IVQ       0.051700
     42 H12        -20.2710    14.7540   -17.8430 hc         1 IVQ       0.051700
     43 H13        -21.8490    14.5530   -15.9440 hc         1 IVQ       0.036033
     44 H14        -22.6910    14.1600   -17.4400 hc         1 IVQ       0.036033
     45 H15        -22.1830    12.8770   -16.3410 hc         1 IVQ       0.036033
     46 H16        -16.7140     9.4980   -15.3950 hc         1 IVQ       0.084200
     47 H17        -16.3290    10.8210   -16.4780 hc         1 IVQ       0.084200
     48 H18        -15.2560     7.5500   -15.8190 hn         1 IVQ       0.356000
     49 H19        -13.6070     5.4630   -17.0080 ha         1 IVQ       0.138000
     50 H20        -12.4570     3.9530   -21.4470 h2         1 IVQ       0.065200
     51 H21        -11.3350     5.2620   -20.9470 h2         1 IVQ       0.065200
     52 H22        -14.8570     8.1350   -21.1300 ha         1 IVQ       0.150000
     53 CAO        -18.8030     7.5670   -16.2970 c3         1 IVQ       0.123900
     54 H2         -17.9560     5.0920   -15.7910 ha         1 IVQ       0.115500
     55 H7         -19.7230     7.2310   -15.8200 h1         1 IVQ       0.072200
     56 H8         -18.0660     7.6540   -15.4980 h1         1 IVQ       0.072200
@<TRIPOS>BOND
     1     1     2 2   
     2     1     6 1   
     3     1    20 1   
     4     2     3 1   
     5     2    13 1   
     6     3     5 1   
     7     3    14 2   
     8     4    13 1   
     9     4    20 2   
    10     4    21 1   
    11     5    15 1   
    12     5    34 1   
    13     6    15 1   
    14     6    17 1   
    15     7     8 ar  
    16     7    12 ar  
    17     7    54 1   
    18     8     9 ar  
    19     8    35 1   
    20     9    10 ar  
    21     9    36 1   
    22    10    11 ar  
    23    10    37 1   
    24    11    12 ar  
    25    11    38 1   
    26    12    53 1   
    27    13    53 1   
    28    15    16 2   
    29    17    18 1   
    30    17    39 1   
    31    17    40 1   
    32    18    19 1   
    33    18    41 1   
    34    18    42 1   
    35    19    43 1   
    36    19    44 1   
    37    19    45 1   
    38    21    22 1   
    39    21    46 1   
    40    21    47 1   
    41    22    23 1   
    42    22    33 2   
    43    23    24 1   
    44    23    48 1   
    45    24    25 ar  
    46    24    32 ar  
    47    25    26 ar  
    48    25    49 1   
    49    26    27 1   
    50    26    30 ar  
    51    27    28 1   
    52    28    29 1   
    53    28    50 1   
    54    28    51 1   
    55    29    30 1   
    56    30    31 ar  
    57    31    32 ar  
    58    31    52 1   
    59    32    33 1   
    60    53    55 1   
    61    53    56 1   
@<TRIPOS>SUBSTRUCTURE
     1 IVQ         1 TEMP              0 ****  ****    0 ROOT
