@<TRIPOS>MOLECULE
IVR
   33    35     1     0     0
SMALL
abcg2


@<TRIPOS>ATOM
      1 C10        -23.5360    30.2780   -23.2590 c3         1 IVR       0.152900
      2 C13        -26.6320    31.6380   -24.9870 ca         1 IVR      -0.154000
      3 C15        -24.6980    32.4310   -26.1890 ca         1 IVR      -0.183000
      4 C02        -25.1940    26.4230   -24.4640 ca         1 IVR       0.283000
      5 C04        -23.0950    25.7980   -25.1510 ca         1 IVR       0.454900
      6 C06        -22.7060    23.5810   -26.1500 c3         1 IVR       0.224100
      7 C07        -22.6520    27.0690   -24.7240 ca         1 IVR      -0.100600
      8 C08        -23.6150    27.9190   -24.1850 ca         1 IVR       0.138500
      9 C11        -24.3990    31.0390   -24.2320 ca         1 IVR      -0.182300
     10 C12        -25.7850    30.9890   -24.0980 ca         1 IVR      -0.034000
     11 C14        -26.0740    32.3560   -26.0420 ca         1 IVR      -0.056000
     12 C16        -23.8380    31.7840   -25.2900 ca         1 IVR       0.304000
     13 C18        -21.6320    28.8570   -24.1800 cc         1 IVR       0.413700
     14 N03        -24.4070    25.5060   -25.0050 nb         1 IVR      -0.284000
     15 N05        -22.2750    24.8860   -25.6810 nu         1 IVR      -0.911100
     16 N09        -22.9470    29.0670   -23.8420 na         1 IVR      -0.279300
     17 N17        -22.4630    31.8420   -25.4900 nv         1 IVR      -1.069000
     18 N19        -21.4120    27.6760   -24.7110 nd         1 IVR      -0.553100
     19 N20        -24.9190    27.6330   -24.0260 nb         1 IVR      -0.203000
     20 H102       -24.1320    29.9750   -22.4000 h1         1 IVR       0.061200
     21 H101       -22.7050    30.8770   -22.8830 h1         1 IVR       0.061200
     22 H131       -27.7050    31.5820   -24.8620 ha         1 IVR       0.120000
     23 H151       -24.2670    33.0030   -27.0020 ha         1 IVR       0.112000
     24 H062       -21.8330    23.0520   -26.5230 h1         1 IVR       0.047033
     25 H063       -23.1540    23.0030   -25.3400 h1         1 IVR       0.047033
     26 H061       -23.4390    23.6730   -26.9540 h1         1 IVR       0.047033
     27 H121       -26.2010    30.4160   -23.2780 ha         1 IVR       0.123000
     28 H141       -26.7130    32.8690   -26.7500 ha         1 IVR       0.113000
     29 H181       -20.8850    29.6140   -24.0030 h5         1 IVR       0.061800
     30 H051       -21.3100    25.1480   -25.7980 hn         1 IVR       0.516000
     31 H171       -22.1630    32.5850   -26.1040 hn         1 IVR       0.442000
     32 H172       -21.8870    31.8010   -24.6630 hn         1 IVR       0.442000
     33 CL01       -26.8810    25.9380   -24.3080 cl         1 IVR      -0.153000
@<TRIPOS>BOND
     1     1     9 1   
     2     1    16 1   
     3     1    20 1   
     4     1    21 1   
     5     2    10 ar  
     6     2    11 ar  
     7     2    22 1   
     8     3    11 ar  
     9     3    12 ar  
    10     3    23 1   
    11     4    14 ar  
    12     4    19 ar  
    13     4    33 1   
    14     5     7 ar  
    15     5    14 ar  
    16     5    15 1   
    17     6    15 1   
    18     6    24 1   
    19     6    25 1   
    20     6    26 1   
    21     7     8 ar  
    22     7    18 1   
    23     8    16 1   
    24     8    19 ar  
    25     9    10 ar  
    26     9    12 ar  
    27    10    27 1   
    28    11    28 1   
    29    12    17 1   
    30    13    16 1   
    31    13    18 2   
    32    13    29 1   
    33    15    30 1   
    34    17    31 1   
    35    17    32 1   
@<TRIPOS>SUBSTRUCTURE
     1 IVR         1 TEMP              0 ****  ****    0 ROOT
