@<TRIPOS>MOLECULE
IVR
   33    35     1     0     0
SMALL
No Charge or Current Charge


@<TRIPOS>ATOM
      1 C10        -23.5740    30.2010   -23.4330 c3         1 IVR       0.152900
      2 C13        -26.4650    31.5630   -25.5360 ca         1 IVR      -0.154000
      3 C15        -24.5210    32.9510   -25.9650 ca         1 IVR      -0.183000
      4 C02        -25.1190    26.0680   -23.7760 ca         1 IVR       0.283000
      5 C04        -23.2400    25.6330   -25.0140 ca         1 IVR       0.454900
      6 C06        -22.7250    23.3310   -26.0400 c3         1 IVR       0.224100
      7 C07        -22.8450    26.9750   -24.8290 ca         1 IVR      -0.100600
      8 C08        -23.6630    27.7960   -24.0930 ca         1 IVR       0.138500
      9 C11        -24.3550    31.0890   -24.3990 ca         1 IVR      -0.182300
     10 C12        -25.7110    30.7870   -24.6410 ca         1 IVR      -0.034000
     11 C14        -25.8710    32.6460   -26.2000 ca         1 IVR      -0.056000
     12 C16        -23.7610    32.1820   -25.0700 ca         1 IVR       0.304000
     13 C18        -21.8490    28.8910   -24.8270 cc         1 IVR       0.413700
     14 N03        -24.3890    25.1740   -24.4820 nb         1 IVR      -0.284000
     15 N05        -22.4550    24.7510   -25.7490 nu         1 IVR      -0.911100
     16 N09        -23.0280    29.0050   -24.0910 na         1 IVR      -0.279300
     17 N17        -22.4480    32.5240   -24.8770 nv         1 IVR      -1.069000
     18 N19        -21.7010    27.6370   -25.2980 nd         1 IVR      -0.553100
     19 N20        -24.8170    27.3670   -23.5480 nb         1 IVR      -0.203000
     20 H102       -24.2360    29.8870   -22.6150 h1         1 IVR       0.061200
     21 H101       -22.7510    30.7570   -22.9680 h1         1 IVR       0.061200
     22 H131       -27.5110    31.3220   -25.7160 ha         1 IVR       0.120000
     23 H151       -24.0660    33.7900   -26.4840 ha         1 IVR       0.112000
     24 H062       -21.9170    22.9010   -26.6470 h1         1 IVR       0.047033
     25 H063       -22.8010    22.7540   -25.1090 h1         1 IVR       0.047033
     26 H061       -23.6680    23.2230   -26.5940 h1         1 IVR       0.047033
     27 H121       -26.1830    29.9460   -24.1360 ha         1 IVR       0.123000
     28 H141       -26.4540    33.2470   -26.8950 ha         1 IVR       0.113000
     29 H181       -21.1710    29.7220   -24.9790 h5         1 IVR       0.061800
     30 H051       -21.6000    25.1690   -26.1240 hn         1 IVR       0.516000
     31 H171       -22.1010    33.3950   -25.2730 hn         1 IVR       0.442000
     32 H172       -21.9370    32.1450   -24.0840 hn         1 IVR       0.442000
     33 Cl01       -26.6190    25.4780   -23.0810 cl         1 IVR      -0.153000
@<TRIPOS>BOND
     1     1     9 1   
     2     1    16 1   
     3     1    20 1   
     4     1    21 1   
     5     2    10 ar  
     6     2    11 ar  
     7     2    22 1   
     8     3    11 ar  
     9     3    12 ar  
    10     3    23 1   
    11     4    14 ar  
    12     4    19 ar  
    13     4    33 1   
    14     5     7 ar  
    15     5    14 ar  
    16     5    15 1   
    17     6    15 1   
    18     6    24 1   
    19     6    25 1   
    20     6    26 1   
    21     7     8 ar  
    22     7    18 1   
    23     8    16 1   
    24     8    19 ar  
    25     9    10 ar  
    26     9    12 ar  
    27    10    27 1   
    28    11    28 1   
    29    12    17 1   
    30    13    16 1   
    31    13    18 2   
    32    13    29 1   
    33    15    30 1   
    34    17    31 1   
    35    17    32 1   
@<TRIPOS>SUBSTRUCTURE
     1 IVR         1 TEMP              0 ****  ****    0 ROOT
