@<TRIPOS>MOLECULE
IVS
   81    80     1     0     0
SMALL
No Charge or Current Charge


@<TRIPOS>ATOM
      1 C57         -2.6590    -1.0280     7.2610 c3         1 IVS       0.167600
      2 O56         -1.9440    -0.8240     6.0310 os         1 IVS      -0.452100
      3 C53         -0.6880    -1.3590     5.9190 c          1 IVS       0.600100
      4 O75         -0.1590    -2.0660     6.7670 o          1 IVS      -0.487000
      5 C52         -0.0790    -1.0970     4.5460 c3         1 IVS      -0.174400
      6 C51          1.0730    -0.0730     4.6300 c3         1 IVS       0.168300
      7 O72          0.5430     1.1890     5.0630 oh         1 IVS      -0.648000
      8 C23          1.8460     0.0930     3.2830 c3         1 IVS       0.073700
      9 C58          3.1100     0.9860     3.4160 c3         1 IVS      -0.089400
     10 N22          0.9810     0.5820     2.1930 ns         1 IVS      -0.503900
     11 C21          0.4110    -0.2170     1.2220 c          1 IVS       0.587100
     12 O19          0.5580    -1.4330     1.2160 o          1 IVS      -0.609100
     13 C20         -0.3880     0.5380     0.1190 c3         1 IVS       0.033700
     14 N19         -0.3840    -0.2720    -1.1190 ns         1 IVS      -0.491900
     15 C18         -0.5410     0.2210    -2.3960 c          1 IVS       0.597100
     16 O36         -0.7270     1.4140    -2.6060 o          1 IVS      -0.619100
     17 C17         -0.4880    -0.8440    -3.5350 c3         1 IVS       0.039700
     18 N16         -1.1380    -0.3010    -4.7500 ns         1 IVS      -0.500900
     19 C12         -1.6810    -1.0550    -5.7650 c          1 IVS       0.603100
     20 O15         -1.7300    -2.2750    -5.7180 o          1 IVS      -0.614100
     21 C10         -2.2580    -0.2490    -6.9340 c3         1 IVS      -0.155400
     22 C2          -1.4060    -0.3760    -8.2260 c3         1 IVS      -0.053700
     23 C6          -2.0840     0.3430    -9.4130 c3         1 IVS      -0.091100
     24 C76         -4.0180    -0.3250     7.1260 c3         1 IVS      -0.097100
     25 C60          3.9570     1.1560     2.1200 c3         1 IVS      -0.060700
     26 C67          5.1330     2.1310     2.3570 c3         1 IVS      -0.091100
     27 C63          4.4690    -0.1910     1.5530 c3         1 IVS      -0.091100
     28 C38         -1.8510     0.8940     0.5410 c3         1 IVS      -0.066700
     29 C40         -2.7090    -0.3500     0.8810 c3         1 IVS      -0.090600
     30 C44         -1.9130     1.9380     1.6810 c3         1 IVS      -0.090600
     31 C25          0.9590    -1.3370    -3.8650 c3         1 IVS      -0.076700
     32 C27          1.9220    -0.1840    -4.2450 c3         1 IVS      -0.092600
     33 C31          1.5700    -2.2250    -2.7550 c3         1 IVS      -0.092600
     34 C1           0.0450     0.1240    -8.0280 c3         1 IVS      -0.091100
     35 H571        -2.1080    -0.6010     8.1100 h1         1 IVS       0.049700
     36 H572        -2.8170    -2.0990     7.4500 h1         1 IVS       0.049700
     37 H521         0.3200    -2.0410     4.1600 hc         1 IVS       0.083700
     38 H522        -0.8520    -0.7120     3.8720 hc         1 IVS       0.083700
     39 H511         1.7950    -0.4460     5.3740 h1         1 IVS       0.098700
     40 HO72        -0.0540     1.5060     4.3530 ho         1 IVS       0.439000
     41 H231         2.1990    -0.9110     3.0120 h1         1 IVS       0.086700
     42 H581         2.8050     1.9800     3.7630 hc         1 IVS       0.056700
     43 H582         3.7510     0.5700     4.2040 hc         1 IVS       0.056700
     44 H221         0.8550     1.5820     2.0910 hn         1 IVS       0.315500
     45 H201         0.1560     1.4700    -0.0860 h1         1 IVS       0.083700
     46 H191        -0.2250    -1.2700    -1.0270 hn         1 IVS       0.338500
     47 H171        -1.0820    -1.7010    -3.1920 h1         1 IVS       0.085700
     48 H161        -1.1740     0.7070    -4.8580 hn         1 IVS       0.337500
     49 H101        -3.2630    -0.6330    -7.1450 hc         1 IVS       0.061200
     50 H102        -2.3260     0.8120    -6.6610 hc         1 IVS       0.061200
     51 HC21        -1.3510    -1.4420    -8.4850 hc         1 IVS       0.066700
     52 HC61        -1.5060     0.2020   -10.3350 hc         1 IVS       0.034700
     53 HC62        -3.0920    -0.0540    -9.5840 hc         1 IVS       0.034700
     54 HC63        -2.1680     1.4200    -9.2220 hc         1 IVS       0.034700
     55 H761        -4.6040    -0.4520     8.0440 hc         1 IVS       0.046700
     56 H762        -3.8820     0.7490     6.9500 hc         1 IVS       0.046700
     57 H763        -4.5900    -0.7470     6.2910 hc         1 IVS       0.046700
     58 H601         3.3210     1.6130     1.3520 hc         1 IVS       0.041700
     59 H671         5.6950     2.2950     1.4290 hc         1 IVS       0.036033
     60 H672         4.7660     3.1040     2.7040 hc         1 IVS       0.036033
     61 H673         5.8240     1.7350     3.1110 hc         1 IVS       0.036033
     62 H631         5.0620    -0.7300     2.3010 hc         1 IVS       0.036033
     63 H632         3.6360    -0.8320     1.2430 hc         1 IVS       0.036033
     64 H633         5.1000    -0.0240     0.6720 hc         1 IVS       0.036033
     65 H381        -2.3210     1.3720    -0.3280 hc         1 IVS       0.063700
     66 H401        -3.7420    -0.0550     1.1020 hc         1 IVS       0.039033
     67 H402        -2.7370    -1.0530     0.0400 hc         1 IVS       0.039033
     68 H403        -2.3140    -0.8770     1.7570 hc         1 IVS       0.039033
     69 H441        -1.5750     1.5110     2.6320 hc         1 IVS       0.039033
     70 H442        -1.2910     2.8100     1.4470 hc         1 IVS       0.039033
     71 H443        -2.9430     2.2890     1.8210 hc         1 IVS       0.039033
     72 H251         0.8780    -1.9830    -4.7490 hc         1 IVS       0.069700
     73 H271         2.8910    -0.5840    -4.5670 hc         1 IVS       0.038700
     74 H272         1.5170     0.4140    -5.0700 hc         1 IVS       0.038700
     75 H273         2.0980     0.4830    -3.3920 hc         1 IVS       0.038700
     76 H311         1.8220    -1.6390    -1.8630 hc         1 IVS       0.038700
     77 H312         0.8750    -3.0220    -2.4650 hc         1 IVS       0.038700
     78 H313         2.4930    -2.6990    -3.1110 hc         1 IVS       0.038700
     79 HC11         0.0580     1.1750    -7.7150 hc         1 IVS       0.034700
     80 HC12         0.5670    -0.4700    -7.2680 hc         1 IVS       0.034700
     81 HC13         0.6140     0.0390    -8.9620 hc         1 IVS       0.034700
@<TRIPOS>BOND
     1     1     2 1   
     2     1    24 1   
     3     1    35 1   
     4     1    36 1   
     5     2     3 1   
     6     3     4 2   
     7     3     5 1   
     8     5     6 1   
     9     5    37 1   
    10     5    38 1   
    11     6     7 1   
    12     6     8 1   
    13     6    39 1   
    14     7    40 1   
    15     8     9 1   
    16     8    10 1   
    17     8    41 1   
    18     9    25 1   
    19     9    42 1   
    20     9    43 1   
    21    10    11 1   
    22    10    44 1   
    23    11    12 2   
    24    11    13 1   
    25    13    14 1   
    26    13    28 1   
    27    13    45 1   
    28    14    15 1   
    29    14    46 1   
    30    15    16 2   
    31    15    17 1   
    32    17    18 1   
    33    17    31 1   
    34    17    47 1   
    35    18    19 1   
    36    18    48 1   
    37    19    20 2   
    38    19    21 1   
    39    21    22 1   
    40    21    49 1   
    41    21    50 1   
    42    22    23 1   
    43    22    34 1   
    44    22    51 1   
    45    23    52 1   
    46    23    53 1   
    47    23    54 1   
    48    24    55 1   
    49    24    56 1   
    50    24    57 1   
    51    25    26 1   
    52    25    27 1   
    53    25    58 1   
    54    26    59 1   
    55    26    60 1   
    56    26    61 1   
    57    27    62 1   
    58    27    63 1   
    59    27    64 1   
    60    28    29 1   
    61    28    30 1   
    62    28    65 1   
    63    29    66 1   
    64    29    67 1   
    65    29    68 1   
    66    30    69 1   
    67    30    70 1   
    68    30    71 1   
    69    31    32 1   
    70    31    33 1   
    71    31    72 1   
    72    32    73 1   
    73    32    74 1   
    74    32    75 1   
    75    33    76 1   
    76    33    77 1   
    77    33    78 1   
    78    34    79 1   
    79    34    80 1   
    80    34    81 1   
@<TRIPOS>SUBSTRUCTURE
     1 IVS         1 TEMP              0 ****  ****    0 ROOT
