@<TRIPOS>MOLECULE
IVS
   81    80     1     0     0
SMALL
abcg2


@<TRIPOS>ATOM
      1 C57         -1.9350    -0.8060     7.7170 c3         1 IVS       0.167600
      2 O56         -1.5140    -0.7510     6.3430 os         1 IVS      -0.452100
      3 C53         -0.2160    -0.7580     6.0870 c          1 IVS       0.600100
      4 O75          0.6350    -0.8010     6.9420 o          1 IVS      -0.487000
      5 C52          0.0740    -0.7350     4.6080 c3         1 IVS      -0.174400
      6 C51          1.2260     0.2120     4.2860 c3         1 IVS       0.168300
      7 O72          0.9260     1.5280     4.6930 oh         1 IVS      -0.648000
      8 C23          1.6350     0.1310     2.8100 c3         1 IVS       0.073700
      9 C58          2.9020     0.9310     2.5200 c3         1 IVS      -0.089400
     10 N22          0.5620     0.5780     1.9370 ns         1 IVS      -0.503900
     11 C21         -0.1870    -0.2460     1.1840 c          1 IVS       0.587100
     12 O19         -0.1430    -1.4640     1.2630 o          1 IVS      -0.609100
     13 C20         -1.1220     0.4470     0.1960 c3         1 IVS       0.033700
     14 N19         -1.0710    -0.2970    -1.0410 ns         1 IVS      -0.491900
     15 C18         -0.8140     0.2610    -2.2330 c          1 IVS       0.597100
     16 O36         -0.7290     1.4680    -2.4100 o          1 IVS      -0.619100
     17 C17         -0.5940    -0.7270    -3.3730 c3         1 IVS       0.039700
     18 N16         -0.9070    -0.0490    -4.6060 ns         1 IVS      -0.500900
     19 C12         -1.3160    -0.6830    -5.7170 c          1 IVS       0.603100
     20 O15         -1.4900    -1.8950    -5.7640 o          1 IVS      -0.614100
     21 C10         -1.5280     0.1980    -6.9260 c3         1 IVS      -0.155400
     22 C2          -0.5200    -0.1150    -8.0390 c3         1 IVS      -0.053700
     23 C6          -0.8430     0.7020    -9.2840 c3         1 IVS      -0.091100
     24 C76         -3.4440    -0.7740     7.7370 c3         1 IVS      -0.097100
     25 C60          3.3940     0.8570     1.0720 c3         1 IVS      -0.060700
     26 C67          4.6130     1.7570     0.8930 c3         1 IVS      -0.091100
     27 C63          3.7170    -0.5690     0.6360 c3         1 IVS      -0.091100
     28 C38         -2.5610     0.5930     0.7330 c3         1 IVS      -0.066700
     29 C40         -3.2380    -0.7380     1.0400 c3         1 IVS      -0.090600
     30 C44         -2.6120     1.5290     1.9350 c3         1 IVS      -0.090600
     31 C25          0.8500    -1.2910    -3.3840 c3         1 IVS      -0.076700
     32 C27          1.9100    -0.1990    -3.4410 c3         1 IVS      -0.092600
     33 C31          1.1200    -2.2520    -2.2310 c3         1 IVS      -0.092600
     34 C1           0.9120     0.1400    -7.5800 c3         1 IVS      -0.091100
     35 H571        -1.5190     0.0440     8.2610 h1         1 IVS       0.049700
     36 H572        -1.5570    -1.7200     8.1800 h1         1 IVS       0.049700
     37 H521         0.3360    -1.7530     4.3040 hc         1 IVS       0.083700
     38 H522        -0.8270    -0.4670     4.0520 hc         1 IVS       0.083700
     39 H511         2.0960    -0.0920     4.8740 h1         1 IVS       0.098700
     40 HO72         0.1440     1.8310     4.2160 ho         1 IVS       0.439000
     41 H231         1.8170    -0.9220     2.5880 h1         1 IVS       0.086700
     42 H581         2.7370     1.9790     2.7900 hc         1 IVS       0.056700
     43 H582         3.6930     0.5640     3.1830 hc         1 IVS       0.056700
     44 H221         0.5260     1.5640     1.7270 hn         1 IVS       0.315500
     45 H201        -0.7490     1.4500    -0.0190 h1         1 IVS       0.083700
     46 H191        -1.1210    -1.3020    -0.9750 hn         1 IVS       0.338500
     47 H171        -1.2840    -1.5680    -3.2630 h1         1 IVS       0.085700
     48 H161        -0.7690     0.9500    -4.6300 hn         1 IVS       0.337500
     49 H101        -2.5430     0.0220    -7.2940 hc         1 IVS       0.061200
     50 H102        -1.4640     1.2580    -6.6640 hc         1 IVS       0.061200
     51 HC21        -0.6210    -1.1750    -8.2900 hc         1 IVS       0.066700
     52 HC61        -0.1530     0.4640   -10.0960 hc         1 IVS       0.034700
     53 HC62        -1.8550     0.5070    -9.6420 hc         1 IVS       0.034700
     54 HC63        -0.7590     1.7730    -9.0850 hc         1 IVS       0.034700
     55 H761        -3.7870    -0.8170     8.7700 hc         1 IVS       0.046700
     56 H762        -3.8320     0.1420     7.2930 hc         1 IVS       0.046700
     57 H763        -3.8700    -1.6270     7.2080 hc         1 IVS       0.046700
     58 H601         2.6020     1.2400     0.4180 hc         1 IVS       0.041700
     59 H671         4.9490     1.7600    -0.1440 hc         1 IVS       0.036033
     60 H672         4.3940     2.7880     1.1770 hc         1 IVS       0.036033
     61 H673         5.4470     1.4130     1.5090 hc         1 IVS       0.036033
     62 H631         4.4950    -1.0020     1.2700 hc         1 IVS       0.036033
     63 H632         2.8500    -1.2290     0.6800 hc         1 IVS       0.036033
     64 H633         4.0800    -0.5850    -0.3930 hc         1 IVS       0.036033
     65 H381        -3.1130     1.0700    -0.0830 hc         1 IVS       0.063700
     66 H401        -4.2920    -0.5730     1.2660 hc         1 IVS       0.039033
     67 H402        -3.1930    -1.4270     0.1970 hc         1 IVS       0.039033
     68 H403        -2.7940    -1.2360     1.9040 hc         1 IVS       0.039033
     69 H441        -2.1160     1.1040     2.8090 hc         1 IVS       0.039033
     70 H442        -2.1440     2.4910     1.7180 hc         1 IVS       0.039033
     71 H443        -3.6460     1.7250     2.2190 hc         1 IVS       0.039033
     72 H251         0.9060    -1.8730    -4.3080 hc         1 IVS       0.069700
     73 H271         2.8980    -0.6440    -3.5600 hc         1 IVS       0.038700
     74 H272         1.7570     0.4830    -4.2780 hc         1 IVS       0.038700
     75 H273         1.9310     0.3950    -2.5250 hc         1 IVS       0.038700
     76 H311         1.2120    -1.7390    -1.2740 hc         1 IVS       0.038700
     77 H312         0.3360    -3.0070    -2.1340 hc         1 IVS       0.038700
     78 H313         2.0600    -2.7780    -2.3990 hc         1 IVS       0.038700
     79 HC11         1.0450     1.1810    -7.2740 hc         1 IVS       0.034700
     80 HC12         1.1960    -0.4910    -6.7360 hc         1 IVS       0.034700
     81 HC13         1.6200    -0.0610    -8.3850 hc         1 IVS       0.034700
@<TRIPOS>BOND
     1     1     2 1   
     2     1    24 1   
     3     1    35 1   
     4     1    36 1   
     5     2     3 1   
     6     3     4 2   
     7     3     5 1   
     8     5     6 1   
     9     5    37 1   
    10     5    38 1   
    11     6     7 1   
    12     6     8 1   
    13     6    39 1   
    14     7    40 1   
    15     8     9 1   
    16     8    10 1   
    17     8    41 1   
    18     9    25 1   
    19     9    42 1   
    20     9    43 1   
    21    10    11 1   
    22    10    44 1   
    23    11    12 2   
    24    11    13 1   
    25    13    14 1   
    26    13    28 1   
    27    13    45 1   
    28    14    15 1   
    29    14    46 1   
    30    15    16 2   
    31    15    17 1   
    32    17    18 1   
    33    17    31 1   
    34    17    47 1   
    35    18    19 1   
    36    18    48 1   
    37    19    20 2   
    38    19    21 1   
    39    21    22 1   
    40    21    49 1   
    41    21    50 1   
    42    22    23 1   
    43    22    34 1   
    44    22    51 1   
    45    23    52 1   
    46    23    53 1   
    47    23    54 1   
    48    24    55 1   
    49    24    56 1   
    50    24    57 1   
    51    25    26 1   
    52    25    27 1   
    53    25    58 1   
    54    26    59 1   
    55    26    60 1   
    56    26    61 1   
    57    27    62 1   
    58    27    63 1   
    59    27    64 1   
    60    28    29 1   
    61    28    30 1   
    62    28    65 1   
    63    29    66 1   
    64    29    67 1   
    65    29    68 1   
    66    30    69 1   
    67    30    70 1   
    68    30    71 1   
    69    31    32 1   
    70    31    33 1   
    71    31    72 1   
    72    32    73 1   
    73    32    74 1   
    74    32    75 1   
    75    33    76 1   
    76    33    77 1   
    77    33    78 1   
    78    34    79 1   
    79    34    80 1   
    80    34    81 1   
@<TRIPOS>SUBSTRUCTURE
     1 IVS         1 TEMP              0 ****  ****    0 ROOT
