@<TRIPOS>MOLECULE
IVT
   46    49     1     0     0
SMALL
No Charge or Current Charge


@<TRIPOS>ATOM
      1 C13         30.5540   -47.7780   -11.3510 c3         1 IVT      -0.107700
      2 C15         28.0180   -44.3420   -16.3490 cc         1 IVT       0.283900
      3 C17         30.0170   -43.7410   -15.3110 cd         1 IVT       0.403300
      4 C18         27.6160   -45.2200   -15.3390 cd         1 IVT      -0.088300
      5 C20         29.6670   -44.6200   -14.2470 cd         1 IVT      -0.120000
      6 C23         31.2910   -42.9430   -15.3210 c3         1 IVT      -0.141400
      7 C24         26.3290   -46.0140   -15.3540 c3         1 IVT      -0.041800
      8 N1          32.7960   -49.0410    -7.2730 nh         1 IVT      -0.799300
      9 C2          32.6340   -49.7910    -6.0070 c5         1 IVT       0.242800
     10 C3          33.8000   -49.2100    -5.1640 c5         1 IVT      -0.096900
     11 C4          34.9000   -49.0290    -6.2440 c5         1 IVT      -0.096900
     12 C5          34.1010   -48.3500    -7.3870 c5         1 IVT       0.242800
     13 C6          29.4500   -45.8150   -12.5440 cc         1 IVT       0.524300
     14 C7          30.8880   -48.4020   -10.0230 cc         1 IVT       0.449800
     15 N8          32.0120   -48.2190    -9.3590 nd         1 IVT      -0.752000
     16 C9          31.8150   -48.9740    -8.2380 cd         1 IVT       0.809900
     17 N10         30.6690   -49.6140    -8.1300 nc         1 IVT      -0.619800
     18 N11         30.0660   -49.2400    -9.2900 na         1 IVT      -0.061700
     19 C12         28.7150   -49.7140    -9.6390 c3         1 IVT       0.077900
     20 C14         29.8050   -46.4290   -11.2180 c3         1 IVT      -0.078700
     21 N16         29.2010   -43.6010   -16.3540 nc         1 IVT      -0.649000
     22 N19         28.5110   -45.3200   -14.2780 na         1 IVT       0.310400
     23 N21         30.3060   -44.9150   -13.1330 nc         1 IVT      -0.379300
     24 N22         28.3280   -46.1120   -13.1890 nd         1 IVT      -0.594100
     25 H36         31.4800   -47.6200   -11.9180 hc         1 IVT       0.075200
     26 H37         29.9490   -48.4740   -11.9430 hc         1 IVT       0.075200
     27 H40         27.4030   -44.1810   -17.2250 h4         1 IVT       0.038100
     28 H42         31.3840   -42.3270   -16.2230 hc         1 IVT       0.065033
     29 H43         31.3330   -42.2740   -14.4540 hc         1 IVT       0.065033
     30 H41         32.1620   -43.6060   -15.2760 hc         1 IVT       0.065033
     31 H45         26.5290   -47.0910   -15.3190 hc         1 IVT       0.064033
     32 H44         25.6990   -45.7610   -14.4930 hc         1 IVT       0.064033
     33 H46         25.7450   -45.8150   -16.2610 hc         1 IVT       0.064033
     34 H26         31.6600   -49.6170    -5.5280 h1         1 IVT       0.048450
     35 H25         32.7540   -50.8710    -6.1710 h1         1 IVT       0.048450
     36 H28         33.5230   -48.2510    -4.7120 hc         1 IVT       0.050950
     37 H27         34.1030   -49.8820    -4.3540 hc         1 IVT       0.050950
     38 H30         35.7390   -48.4140    -5.9000 hc         1 IVT       0.050950
     39 H29         35.3080   -49.9950    -6.5650 hc         1 IVT       0.050950
     40 H31         34.5810   -48.5020    -8.3640 h1         1 IVT       0.048450
     41 H32         33.9900   -47.2700    -7.2170 h1         1 IVT       0.048450
     42 H34         28.2950   -50.3030    -8.8140 h1         1 IVT       0.054367
     43 H33         28.0620   -48.8540    -9.8340 h1         1 IVT       0.054367
     44 H35         28.7660   -50.3400   -10.5380 h1         1 IVT       0.054367
     45 H38         30.4240   -45.7280   -10.6450 hc         1 IVT       0.071700
     46 H39         28.8890   -46.5770   -10.6340 hc         1 IVT       0.071700
@<TRIPOS>BOND
     1     1    14 1   
     2     1    20 1   
     3     1    25 1   
     4     1    26 1   
     5     2     4 2   
     6     2    21 1   
     7     2    27 1   
     8     3     5 1   
     9     3     6 1   
    10     3    21 2   
    11     4     7 1   
    12     4    22 1   
    13     5    22 1   
    14     5    23 2   
    15     6    28 1   
    16     6    29 1   
    17     6    30 1   
    18     7    31 1   
    19     7    32 1   
    20     7    33 1   
    21     8     9 1   
    22     8    12 1   
    23     8    16 1   
    24     9    10 1   
    25     9    34 1   
    26     9    35 1   
    27    10    11 1   
    28    10    36 1   
    29    10    37 1   
    30    11    12 1   
    31    11    38 1   
    32    11    39 1   
    33    12    40 1   
    34    12    41 1   
    35    13    20 1   
    36    13    23 1   
    37    13    24 2   
    38    14    15 2   
    39    14    18 1   
    40    15    16 1   
    41    16    17 2   
    42    17    18 1   
    43    18    19 1   
    44    19    42 1   
    45    19    43 1   
    46    19    44 1   
    47    20    45 1   
    48    20    46 1   
    49    22    24 1   
@<TRIPOS>SUBSTRUCTURE
     1 IVT         1 TEMP              0 ****  ****    0 ROOT
