@<TRIPOS>MOLECULE
IVT
   46    49     1     0     0
SMALL
abcg2


@<TRIPOS>ATOM
      1 C13         30.7500   -47.7720   -11.4570 c3         1 IVT      -0.107700
      2 C15         27.8810   -43.9920   -16.0800 cc         1 IVT       0.283900
      3 C17         30.0830   -44.1400   -15.4200 cd         1 IVT       0.403300
      4 C18         27.3900   -44.7060   -15.0260 cd         1 IVT      -0.088300
      5 C20         29.6650   -44.8890   -14.2920 cd         1 IVT      -0.120000
      6 C23         31.5310   -43.8490   -15.6160 c3         1 IVT      -0.141400
      7 C24         25.9660   -45.0350   -14.7770 c3         1 IVT      -0.041800
      8 N1          32.6950   -48.8110    -7.2010 nh         1 IVT      -0.799300
      9 C2          32.6250   -49.7740    -6.1220 c5         1 IVT       0.242800
     10 C3          33.6000   -49.2030    -5.0980 c5         1 IVT      -0.096900
     11 C4          34.6530   -48.5210    -5.9670 c5         1 IVT      -0.096900
     12 C5          33.8380   -47.9200    -7.1110 c5         1 IVT       0.242800
     13 C6          29.3510   -46.0120   -12.5580 cc         1 IVT       0.524300
     14 C7          31.0800   -48.4370   -10.1680 cc         1 IVT       0.449800
     15 N8          32.0110   -48.0200    -9.3280 nd         1 IVT      -0.752000
     16 C9          31.9110   -48.8910    -8.2960 cd         1 IVT       0.809900
     17 N10         30.9790   -49.8150    -8.4520 nc         1 IVT      -0.619800
     18 N11         30.4570   -49.4990    -9.6600 na         1 IVT      -0.061700
     19 C12         29.3710   -50.2810   -10.1910 c3         1 IVT       0.077900
     20 C14         29.6140   -46.7550   -11.2960 c3         1 IVT      -0.078700
     21 N16         29.1920   -43.7170   -16.2730 nc         1 IVT      -0.649000
     22 N19         28.3340   -45.1410   -14.1450 na         1 IVT       0.310400
     23 N21         30.3220   -45.4390   -13.2840 nc         1 IVT      -0.379300
     24 N22         28.1260   -45.8590   -13.0440 nd         1 IVT      -0.594100
     25 H36         31.6470   -47.2640   -11.8070 hc         1 IVT       0.075200
     26 H37         30.4870   -48.5080   -12.2200 hc         1 IVT       0.075200
     27 H40         27.1920   -43.6140   -16.8230 h4         1 IVT       0.038100
     28 H42         31.6830   -43.2810   -16.5300 hc         1 IVT       0.065033
     29 H43         31.9300   -43.2770   -14.7770 hc         1 IVT       0.065033
     30 H41         32.1090   -44.7720   -15.6750 hc         1 IVT       0.065033
     31 H45         25.8120   -46.1150   -14.7420 hc         1 IVT       0.064033
     32 H44         25.6270   -44.6250   -13.8250 hc         1 IVT       0.064033
     33 H46         25.3470   -44.6240   -15.5710 hc         1 IVT       0.064033
     34 H26         31.6090   -49.8620    -5.7300 h1         1 IVT       0.048450
     35 H25         32.9340   -50.7740    -6.4530 h1         1 IVT       0.048450
     36 H28         33.0940   -48.4680    -4.4670 hc         1 IVT       0.050950
     37 H27         34.0130   -49.9720    -4.4460 hc         1 IVT       0.050950
     38 H30         35.2330   -47.7690    -5.4330 hc         1 IVT       0.050950
     39 H29         35.3520   -49.2630    -6.3590 hc         1 IVT       0.050950
     40 H31         34.4010   -47.8890    -8.0460 h1         1 IVT       0.048450
     41 H32         33.5260   -46.8950    -6.8830 h1         1 IVT       0.048450
     42 H34         28.4940   -50.1960    -9.5520 h1         1 IVT       0.054367
     43 H33         29.1140   -49.9270   -11.1850 h1         1 IVT       0.054367
     44 H35         29.6610   -51.3280   -10.2580 h1         1 IVT       0.054367
     45 H38         29.8810   -46.0390   -10.5130 hc         1 IVT       0.071700
     46 H39         28.6950   -47.2470   -10.9740 hc         1 IVT       0.071700
@<TRIPOS>BOND
     1     1    14 1   
     2     1    20 1   
     3     1    25 1   
     4     1    26 1   
     5     2     4 2   
     6     2    21 1   
     7     2    27 1   
     8     3     5 1   
     9     3     6 1   
    10     3    21 2   
    11     4     7 1   
    12     4    22 1   
    13     5    22 1   
    14     5    23 2   
    15     6    28 1   
    16     6    29 1   
    17     6    30 1   
    18     7    31 1   
    19     7    32 1   
    20     7    33 1   
    21     8     9 1   
    22     8    12 1   
    23     8    16 1   
    24     9    10 1   
    25     9    34 1   
    26     9    35 1   
    27    10    11 1   
    28    10    36 1   
    29    10    37 1   
    30    11    12 1   
    31    11    38 1   
    32    11    39 1   
    33    12    40 1   
    34    12    41 1   
    35    13    20 1   
    36    13    23 1   
    37    13    24 2   
    38    14    15 2   
    39    14    18 1   
    40    15    16 1   
    41    16    17 2   
    42    17    18 1   
    43    18    19 1   
    44    19    42 1   
    45    19    43 1   
    46    19    44 1   
    47    20    45 1   
    48    20    46 1   
    49    22    24 1   
@<TRIPOS>SUBSTRUCTURE
     1 IVT         1 TEMP              0 ****  ****    0 ROOT
