@<TRIPOS>MOLECULE
IVU
   56    58     1     0     0
SMALL
No Charge or Current Charge


@<TRIPOS>ATOM
      1 C29         -6.0330     4.1740     0.3900 c3         1 IVU      -0.053800
      2 C24         -6.0340     2.6760     0.1380 ca         1 IVU       0.001700
      3 C25         -4.8470     1.9840    -0.1550 ca         1 IVU      -0.216000
      4 C23         -7.2200     1.9280     0.1820 ca         1 IVU      -0.230000
      5 C20         -4.8920     0.5960    -0.3860 ca         1 IVU       0.395300
      6 C22         -7.1490     0.5550    -0.0590 ca         1 IVU       0.600900
      7 N28         -8.2110    -0.2530    -0.0500 nv         1 IVU      -1.054900
      8 C19         -3.6210    -0.1800    -0.6980 c3         1 IVU      -0.123700
      9 N21         -6.0400    -0.1150    -0.3380 nb         1 IVU      -0.753000
     10 C14         -1.5310    -1.2770     0.2460 ca         1 IVU      -0.079300
     11 C13         -0.3420    -0.5720    -0.0170 ca         1 IVU      -0.090000
     12 C18         -2.8130    -0.5230     0.5720 c3         1 IVU      -0.029100
     13 C16         -0.3450    -3.3830    -0.1080 ca         1 IVU      -0.018000
     14 C12          0.8460    -1.2610    -0.3250 ca         1 IVU      -0.080300
     15 C17          0.8410    -2.6680    -0.3670 ca         1 IVU      -0.070000
     16 C10          2.9400    -0.2350     0.6870 c3         1 IVU      -0.124700
     17 N01          5.3560    -0.1570     0.3190 nb         1 IVU      -0.766000
     18 C02          6.4730     0.5230     0.0830 ca         1 IVU       0.626900
     19 C04          5.3610     2.6610     0.0470 ca         1 IVU       0.003700
     20 C03          6.5440     1.9150    -0.0580 ca         1 IVU      -0.239000
     21 C06          4.2130     0.5550     0.4260 ca         1 IVU       0.402300
     22 C26         -0.3460    -4.8190    -0.1540 cg         1 IVU       0.326000
     23 C05          4.1740     1.9550     0.2960 ca         1 IVU      -0.225000
     24 C11          2.1290    -0.4900    -0.6010 c3         1 IVU      -0.028100
     25 C15         -1.5290    -2.6840     0.1970 ca         1 IVU      -0.070000
     26 C08          8.8990     0.0110    -0.4700 c3         1 IVU       0.221100
     27 H291        -6.1400     4.7280    -0.5500 hc         1 IVU       0.046700
     28 H292        -6.8580     4.4690     1.0500 hc         1 IVU       0.046700
     29 H293        -5.0990     4.4970     0.8660 hc         1 IVU       0.046700
     30 H25         -3.8990     2.5120    -0.2040 ha         1 IVU       0.121000
     31 H23         -8.1730     2.4010     0.4010 ha         1 IVU       0.119000
     32 H281        -9.1200     0.1720    -0.1940 hn         1 IVU       0.468500
     33 H282        -8.0630    -1.1640    -0.4650 hn         1 IVU       0.468500
     34 H191        -3.8590    -1.1070    -1.2330 hc         1 IVU       0.056700
     35 H192        -2.9900     0.4090    -1.3740 hc         1 IVU       0.056700
     36 H181        -2.5770     0.4030     1.1120 hc         1 IVU       0.059200
     37 H182        -3.4410    -1.1170     1.2480 hc         1 IVU       0.059200
     38 H13         -0.3410     0.5150     0.0180 ha         1 IVU       0.114000
     39 H15         -2.4470    -3.2340     0.3950 ha         1 IVU       0.128000
     40 H17          1.7580    -3.2060    -0.6000 ha         1 IVU       0.127000
     41 H111         2.7550    -1.0390    -1.3170 hc         1 IVU       0.057700
     42 H112         1.8960     0.4710    -1.0770 hc         1 IVU       0.057700
     43 H101         3.1760    -1.1970     1.1580 hc         1 IVU       0.056700
     44 H102         2.3130     0.3090     1.4030 hc         1 IVU       0.056700
     45 H05          3.2280     2.4820     0.3890 ha         1 IVU       0.120000
     46 H091         4.4230     4.5370    -0.5200 hc         1 IVU       0.045700
     47 H092         5.5020     4.6560     0.8800 hc         1 IVU       0.045700
     48 H093         6.1760     4.5100    -0.7530 hc         1 IVU       0.045700
     49 H03          7.4940     2.4040    -0.2440 ha         1 IVU       0.120000
     50 H07          7.2790    -1.2900     0.0810 hn         1 IVU       0.499000
     51 H081         9.5420    -0.8790    -0.4310 h1         1 IVU       0.035033
     52 H082         8.8660     0.3700    -1.5080 h1         1 IVU       0.035033
     53 H083         9.3520     0.7920     0.1550 h1         1 IVU       0.035033
     54 N07          7.5470    -0.3120     0.0060 nu         1 IVU      -0.942100
     55 C09          5.3660     4.1730    -0.0950 c3         1 IVU      -0.053800
     56 N27         -0.3540    -5.9860    -0.2000 n1         1 IVU      -0.458000
@<TRIPOS>BOND
     1     1     2 1   
     2     1    27 1   
     3     1    28 1   
     4     1    29 1   
     5     2     3 ar  
     6     2     4 ar  
     7     3     5 ar  
     8     3    30 1   
     9     4     6 ar  
    10     4    31 1   
    11     5     8 1   
    12     5     9 ar  
    13     6     7 1   
    14     6     9 ar  
    15     7    32 1   
    16     7    33 1   
    17     8    12 1   
    18     8    34 1   
    19     8    35 1   
    20    10    11 ar  
    21    10    12 1   
    22    10    25 ar  
    23    11    14 ar  
    24    11    38 1   
    25    12    36 1   
    26    12    37 1   
    27    13    15 ar  
    28    13    22 1   
    29    13    25 ar  
    30    14    15 ar  
    31    14    24 1   
    32    15    40 1   
    33    16    21 1   
    34    16    24 1   
    35    16    43 1   
    36    16    44 1   
    37    17    18 ar  
    38    17    21 ar  
    39    18    20 ar  
    40    18    54 1   
    41    19    20 ar  
    42    19    23 ar  
    43    19    55 1   
    44    20    49 1   
    45    21    23 ar  
    46    22    56 3   
    47    23    45 1   
    48    24    41 1   
    49    24    42 1   
    50    25    39 1   
    51    26    51 1   
    52    26    52 1   
    53    26    53 1   
    54    26    54 1   
    55    46    55 1   
    56    47    55 1   
    57    48    55 1   
    58    50    54 1   
@<TRIPOS>SUBSTRUCTURE
     1 IVU         1 TEMP              0 ****  ****    0 ROOT
