@<TRIPOS>MOLECULE
IVU
   56    58     1     0     0
SMALL
abcg2


@<TRIPOS>ATOM
      1 C29         -5.8990     4.2240    -0.4760 c3         1 IVU      -0.053800
      2 C24         -5.8460     2.7330    -0.3370 ca         1 IVU       0.001700
      3 C25         -4.6690     2.0330    -0.6300 ca         1 IVU      -0.216000
      4 C23         -6.9420     2.0110     0.0860 ca         1 IVU      -0.230000
      5 C20         -4.6540     0.6580    -0.4860 ca         1 IVU       0.395300
      6 C22         -6.8380     0.6140     0.2020 ca         1 IVU       0.600900
      7 N28         -7.8910    -0.1270     0.6580 nv         1 IVU      -1.054900
      8 C19         -3.4040    -0.1340    -0.7460 c3         1 IVU      -0.123700
      9 N21         -5.7170    -0.0400    -0.0800 nb         1 IVU      -0.753000
     10 C14         -1.5180    -1.4140     0.3140 ca         1 IVU      -0.079300
     11 C13         -0.3240    -0.7530     0.0380 ca         1 IVU      -0.090000
     12 C18         -2.7770    -0.6350     0.5620 c3         1 IVU      -0.029100
     13 C16         -0.3440    -3.4960     0.0450 ca         1 IVU      -0.018000
     14 C12          0.8600    -1.4330    -0.2350 ca         1 IVU      -0.080300
     15 C17          0.8440    -2.8210    -0.2300 ca         1 IVU      -0.070000
     16 C10          2.7810    -0.2100     0.8260 c3         1 IVU      -0.124700
     17 N01          5.0560    -0.1140     0.0500 nb         1 IVU      -0.766000
     18 C02          6.1910     0.5300    -0.2260 ca         1 IVU       0.626900
     19 C04          5.2910     2.6140     0.5660 ca         1 IVU       0.003700
     20 C03          6.3460     1.9080     0.0190 ca         1 IVU      -0.239000
     21 C06          4.0410     0.5700     0.5730 ca         1 IVU       0.402300
     22 C26         -0.3540    -4.9240     0.0490 cg         1 IVU       0.326000
     23 C05          4.1070     1.9250     0.8490 ca         1 IVU      -0.225000
     24 C11          2.1310    -0.6730    -0.4850 c3         1 IVU      -0.028100
     25 C15         -1.5220    -2.8020     0.3150 ca         1 IVU      -0.070000
     26 C08          8.4320     0.3300    -1.2310 c3         1 IVU       0.221100
     27 H291        -5.6740     4.5290    -1.4990 hc         1 IVU       0.046700
     28 H292        -6.8780     4.6200    -0.2110 hc         1 IVU       0.046700
     29 H293        -5.1570     4.6980     0.1680 hc         1 IVU       0.046700
     30 H25         -3.7820     2.5560    -0.9650 ha         1 IVU       0.121000
     31 H23         -7.8730     2.5090     0.3300 ha         1 IVU       0.119000
     32 H281        -8.8120     0.2690     0.5660 hn         1 IVU       0.468500
     33 H282        -7.8500    -1.1150     0.4720 hn         1 IVU       0.468500
     34 H191        -3.6400    -0.9910    -1.3820 hc         1 IVU       0.056700
     35 H192        -2.6810     0.4790    -1.2880 hc         1 IVU       0.056700
     36 H181        -2.5580     0.2210     1.2060 hc         1 IVU       0.059200
     37 H182        -3.5020    -1.2540     1.0940 hc         1 IVU       0.059200
     38 H13         -0.3140     0.3320     0.0370 ha         1 IVU       0.114000
     39 H15         -2.4340    -3.3460     0.5270 ha         1 IVU       0.128000
     40 H17          1.7480    -3.3790    -0.4390 ha         1 IVU       0.127000
     41 H111         2.8400    -1.2940    -1.0350 hc         1 IVU       0.057700
     42 H112         1.9190     0.1990    -1.1090 hc         1 IVU       0.057700
     43 H101         3.0110    -1.0850     1.4400 hc         1 IVU       0.056700
     44 H102         2.0730     0.4000     1.3910 hc         1 IVU       0.056700
     45 H05          3.2540     2.4390     1.2740 ha         1 IVU       0.120000
     46 H091         4.6190     4.6390     0.3450 hc         1 IVU       0.045700
     47 H092         5.2960     4.2730     1.9210 hc         1 IVU       0.045700
     48 H093         6.3670     4.4800     0.5340 hc         1 IVU       0.045700
     49 H03          7.2710     2.4140    -0.2220 ha         1 IVU       0.120000
     50 H07          6.9470    -1.1530    -1.0200 hn         1 IVU       0.499000
     51 H081         9.0320    -0.4810    -1.6370 h1         1 IVU       0.035033
     52 H082         8.2860     1.0710    -2.0230 h1         1 IVU       0.035033
     53 H083         9.0090     0.8010    -0.4330 h1         1 IVU       0.035033
     54 N07          7.1950    -0.2170    -0.7430 nu         1 IVU      -0.942100
     55 C09          5.4060     4.0800     0.8530 c3         1 IVU      -0.053800
     56 N27         -0.3620    -6.0770     0.0530 n1         1 IVU      -0.458000
@<TRIPOS>BOND
     1     1     2 1   
     2     1    27 1   
     3     1    28 1   
     4     1    29 1   
     5     2     3 ar  
     6     2     4 ar  
     7     3     5 ar  
     8     3    30 1   
     9     4     6 ar  
    10     4    31 1   
    11     5     8 1   
    12     5     9 ar  
    13     6     7 1   
    14     6     9 ar  
    15     7    32 1   
    16     7    33 1   
    17     8    12 1   
    18     8    34 1   
    19     8    35 1   
    20    10    11 ar  
    21    10    12 1   
    22    10    25 ar  
    23    11    14 ar  
    24    11    38 1   
    25    12    36 1   
    26    12    37 1   
    27    13    15 ar  
    28    13    22 1   
    29    13    25 ar  
    30    14    15 ar  
    31    14    24 1   
    32    15    40 1   
    33    16    21 1   
    34    16    24 1   
    35    16    43 1   
    36    16    44 1   
    37    17    18 ar  
    38    17    21 ar  
    39    18    20 ar  
    40    18    54 1   
    41    19    20 ar  
    42    19    23 ar  
    43    19    55 1   
    44    20    49 1   
    45    21    23 ar  
    46    22    56 3   
    47    23    45 1   
    48    24    41 1   
    49    24    42 1   
    50    25    39 1   
    51    26    51 1   
    52    26    52 1   
    53    26    53 1   
    54    26    54 1   
    55    46    55 1   
    56    47    55 1   
    57    48    55 1   
    58    50    54 1   
@<TRIPOS>SUBSTRUCTURE
     1 IVU         1 TEMP              0 ****  ****    0 ROOT
