@<TRIPOS>MOLECULE
IVV
   80    79     1     0     0
SMALL
No Charge or Current Charge


@<TRIPOS>ATOM
      1 CA1          7.7570    -1.0300    -0.5910 c3         1 IVV      -0.154400
      2 CB1          8.9800    -0.3320     0.0630 c3         1 IVV      -0.055700
      3 CG11        10.2740    -0.6040    -0.7380 c3         1 IVV      -0.089100
      4 CG21         8.7570     1.1870     0.2510 c3         1 IVV      -0.089100
      5 C1           6.5250    -1.0490     0.3240 c          1 IVV       0.600100
      6 O1           6.4290    -1.8060     1.2790 o          1 IVV      -0.609100
      7 N1           5.5150    -0.1880    -0.0420 ns         1 IVV      -0.488900
      8 CA2          4.1990    -0.0670     0.6290 c3         1 IVV       0.035700
      9 C2           3.1010     0.0790    -0.4680 c          1 IVV       0.589100
     10 O2           3.3050     0.6300    -1.5440 o          1 IVV      -0.632100
     11 CB2          4.1970     1.1190     1.6520 c3         1 IVV      -0.067700
     12 CG12         2.7910     1.4420     2.2180 c3         1 IVV      -0.091600
     13 CG22         5.1900     0.8950     2.8200 c3         1 IVV      -0.091600
     14 N3           1.8780    -0.4760    -0.1510 ns         1 IVV      -0.459900
     15 CA3          0.6770    -0.4630    -1.0190 c3         1 IVV       0.021700
     16 C3          -0.5890    -0.1710    -0.1600 c          1 IVV       0.592100
     17 O3          -0.5920    -0.2260     1.0650 o          1 IVV      -0.625100
     18 CB3          0.5400    -1.7810    -1.8460 c3         1 IVV      -0.067700
     19 CG13         1.6700    -1.9460    -2.8890 c3         1 IVV      -0.095600
     20 CG23         0.4190    -3.0440    -0.9560 c3         1 IVV      -0.095600
     21 N4          -1.7190     0.1730    -0.8840 ns         1 IVV      -0.464900
     22 O4          -6.5940    -2.5530     1.1220 o          1 IVV      -0.518000
     23 P           -4.3000    -0.8900    -0.3090 p5         1 IVV       1.385000
     24 C5          -6.5200    -1.3590     0.8780 c          1 IVV       0.635100
     25 C6          -8.8770    -1.1800     0.4460 c3         1 IVV       0.169600
     26 O6          -7.5960    -0.5540     0.6260 os         1 IVV      -0.442100
     27 C7          -9.8980    -0.0680     0.1560 c3         1 IVV      -0.092100
     28 CA4         -3.0500     0.5120    -0.2960 c3         1 IVV      -0.241300
     29 CB4         -3.6000     1.8380    -0.8930 c3         1 IVV      -0.060400
     30 CG4         -2.6700     3.0760    -0.7460 c3         1 IVV      -0.058700
     31 O2P         -5.1350    -0.8300    -1.5480 o          1 IVV      -0.796500
     32 CD1         -3.2680     4.3020    -1.4720 c3         1 IVV      -0.085100
     33 CD2         -2.3530     3.4150     0.7300 c3         1 IVV      -0.085100
     34 HA1          8.0270    -2.0710    -0.8060 hc         1 IVV       0.057700
     35 HA1A         7.5230    -0.5130    -1.5300 hc         1 IVV       0.057700
     36 HB1          9.1230    -0.7710     1.0600 hc         1 IVV       0.067700
     37 HG11        11.1390    -0.1420    -0.2470 hc         1 IVV       0.032033
     38 HG1A        10.4650    -1.6810    -0.8150 hc         1 IVV       0.032033
     39 HG1B        10.1970    -0.1950    -1.7540 hc         1 IVV       0.032033
     40 HG21         8.6070     1.6820    -0.7160 hc         1 IVV       0.032033
     41 HG2A         7.8790     1.3850     0.8760 hc         1 IVV       0.032033
     42 HG2B         9.6240     1.6470     0.7400 hc         1 IVV       0.032033
     43 HN1          5.6750     0.3720    -0.8720 hn         1 IVV       0.317500
     44 HA2          3.9880    -1.0000     1.1670 h1         1 IVV       0.079700
     45 HB2          4.5300     2.0160     1.1130 hc         1 IVV       0.058700
     46 HG12         2.8480     2.2450     2.9620 hc         1 IVV       0.039200
     47 HG1C         2.1100     1.7830     1.4290 hc         1 IVV       0.039200
     48 HG1D         2.3510     0.5610     2.7030 hc         1 IVV       0.039200
     49 HG22         4.9370    -0.0150     3.3770 hc         1 IVV       0.039200
     50 HG2C         6.2190     0.8010     2.4580 hc         1 IVV       0.039200
     51 HG2D         5.1670     1.7410     3.5180 hc         1 IVV       0.039200
     52 HN3          1.7840    -0.8780     0.7750 hn         1 IVV       0.330500
     53 HA3          0.7620     0.3780    -1.7200 h1         1 IVV       0.082700
     54 HB3         -0.3930    -1.7090    -2.4190 hc         1 IVV       0.065700
     55 HG13         1.4750    -2.8110    -3.5350 hc         1 IVV       0.040533
     56 HG1E         1.7410    -1.0580    -3.5280 hc         1 IVV       0.040533
     57 HG1F         2.6400    -2.1000    -2.4020 hc         1 IVV       0.040533
     58 HG23        -0.4270    -2.9600    -0.2630 hc         1 IVV       0.040533
     59 HG2E         0.2540    -3.9350    -1.5740 hc         1 IVV       0.040533
     60 HG2F         1.3310    -3.2050    -0.3690 hc         1 IVV       0.040533
     61 HN4         -1.6180     0.1830    -1.8940 hn         1 IVV       0.316500
     62 H6          -8.8520    -1.8830    -0.3970 h1         1 IVV       0.036700
     63 H6A         -9.1770    -1.7250     1.3500 h1         1 IVV       0.036700
     64 H7         -10.8960    -0.4990     0.0090 hc         1 IVV       0.037700
     65 H7A         -9.9480     0.6390     0.9930 hc         1 IVV       0.037700
     66 H7B         -9.6240     0.4810    -0.7530 hc         1 IVV       0.037700
     67 HA4         -2.9210     0.6580     0.7820 h1         1 IVV       0.084700
     68 HB4         -3.8070     1.6780    -1.9590 hc         1 IVV       0.041700
     69 HB4A        -4.5660     2.0690    -0.4260 hc         1 IVV       0.041700
     70 HG4         -1.7180     2.8500    -1.2420 hc         1 IVV       0.047700
     71 HP          -4.7450    -0.8910     2.0200 hc         1 IVV       0.075200
     72 HPA         -5.5010     0.5330     1.1500 hc         1 IVV       0.075200
     73 HD14        -2.5860     5.1590    -1.4150 hc         1 IVV       0.025367
     74 HD1A        -3.4410     4.0800    -2.5320 hc         1 IVV       0.025367
     75 HD1B        -4.2250     4.5950    -1.0230 hc         1 IVV       0.025367
     76 HD24        -3.2750     3.5930     1.2970 hc         1 IVV       0.025367
     77 HD2A        -1.8010     2.6010     1.2140 hc         1 IVV       0.025367
     78 HD2B        -1.7320     4.3170     0.7950 hc         1 IVV       0.025367
     79 CP          -5.2990    -0.5420     1.1440 c3         1 IVV      -0.490400
     80 O1P         -3.6070    -2.2040    -0.1370 o          1 IVV      -0.796500
@<TRIPOS>BOND
     1     1     2 1   
     2     1     5 1   
     3     1    34 1   
     4     1    35 1   
     5     2     3 1   
     6     2     4 1   
     7     2    36 1   
     8     3    37 1   
     9     3    38 1   
    10     3    39 1   
    11     4    40 1   
    12     4    41 1   
    13     4    42 1   
    14     5     6 2   
    15     5     7 1   
    16     7     8 1   
    17     7    43 1   
    18     8     9 1   
    19     8    11 1   
    20     8    44 1   
    21     9    10 2   
    22     9    14 1   
    23    11    12 1   
    24    11    13 1   
    25    11    45 1   
    26    12    46 1   
    27    12    47 1   
    28    12    48 1   
    29    13    49 1   
    30    13    50 1   
    31    13    51 1   
    32    14    15 1   
    33    14    52 1   
    34    15    16 1   
    35    15    18 1   
    36    15    53 1   
    37    16    17 2   
    38    16    21 1   
    39    18    19 1   
    40    18    20 1   
    41    18    54 1   
    42    19    55 1   
    43    19    56 1   
    44    19    57 1   
    45    20    58 1   
    46    20    59 1   
    47    20    60 1   
    48    21    28 1   
    49    21    61 1   
    50    22    24 2   
    51    23    28 1   
    52    23    31 1   
    53    23    79 1   
    54    23    80 1   
    55    24    26 1   
    56    24    79 1   
    57    25    26 1   
    58    25    27 1   
    59    25    62 1   
    60    25    63 1   
    61    27    64 1   
    62    27    65 1   
    63    27    66 1   
    64    28    29 1   
    65    28    67 1   
    66    29    30 1   
    67    29    68 1   
    68    29    69 1   
    69    30    32 1   
    70    30    33 1   
    71    30    70 1   
    72    32    73 1   
    73    32    74 1   
    74    32    75 1   
    75    33    76 1   
    76    33    77 1   
    77    33    78 1   
    78    71    79 1   
    79    72    79 1   
@<TRIPOS>SUBSTRUCTURE
     1 IVV         1 TEMP              0 ****  ****    0 ROOT
