@<TRIPOS>MOLECULE
IVV
   80    79     1     0     0
SMALL
bcc


@<TRIPOS>ATOM
      1 CA1          6.9610    -0.7520    -1.3010 c3         1 IVV      -0.154400
      2 CB1          8.0490    -1.5900    -0.6190 c3         1 IVV      -0.055700
      3 CG11         9.2780    -1.6720    -1.5170 c3         1 IVV      -0.089100
      4 CG21         8.4100    -1.0260     0.7510 c3         1 IVV      -0.089100
      5 C1           5.6660    -0.7680    -0.5250 c          1 IVV       0.667100
      6 O1           5.0240    -1.7980    -0.3580 o          1 IVV      -0.609100
      7 N1           5.2840     0.4100    -0.0010 ns         1 IVV      -0.555900
      8 CA2          4.0610     0.5720     0.7460 c3         1 IVV       0.035700
      9 C2           2.8910     0.6830    -0.2320 c          1 IVV       0.656100
     10 O2           2.9330     1.4780    -1.1600 o          1 IVV      -0.632100
     11 CB2          4.1330     1.8190     1.6410 c3         1 IVV      -0.067700
     12 CG12         2.8450     1.9930     2.4400 c3         1 IVV      -0.091600
     13 CG22         5.3280     1.7410     2.5870 c3         1 IVV      -0.091600
     14 N3           1.8550    -0.1260     0.0200 ns         1 IVV      -0.526900
     15 CA3          0.6330    -0.1330    -0.7370 c3         1 IVV       0.021700
     16 C3          -0.5090     0.4280     0.1140 c          1 IVV       0.659100
     17 O3          -0.4110     0.5440     1.3260 o          1 IVV      -0.625100
     18 CB3          0.3010    -1.5410    -1.2780 c3         1 IVV      -0.067700
     19 CG13         1.4480    -2.0640    -2.1350 c3         1 IVV      -0.095600
     20 CG23        -0.0710    -2.5220    -0.1710 c3         1 IVV      -0.095600
     21 N4          -1.5950     0.7730    -0.5910 ns         1 IVV      -0.531900
     22 O4          -6.5090    -1.1040     2.2600 o          1 IVV      -0.567000
     23 P           -3.9960    -0.2750    -0.1520 p5         1 IVV       1.069400
     24 C5          -6.3830    -0.7680     1.1070 c          1 IVV       0.684100
     25 C6          -7.7190    -2.5890     0.3880 c3         1 IVV       0.146400
     26 O6          -6.9490    -1.4170     0.0940 os         1 IVV      -0.418900
     27 C7          -8.2160    -3.1520    -0.9220 c3         1 IVV      -0.092100
     28 CA4         -2.8570     1.1850    -0.0110 c3         1 IVV      -0.083500
     29 CB4         -3.3930     2.4380    -0.6960 c3         1 IVV      -0.060400
     30 CG4         -2.4310     3.6280    -0.7240 c3         1 IVV      -0.058700
     31 O2P         -4.2230    -0.5340    -1.6230 o          1 IVV      -0.796500
     32 CD1         -3.0750     4.7900    -1.4730 c3         1 IVV      -0.085100
     33 CD2         -2.0070     4.0620     0.6750 c3         1 IVV      -0.085100
     34 HA1          6.7570    -1.1620    -2.2940 hc         1 IVV       0.057700
     35 HA1A         7.3300     0.2670    -1.4480 hc         1 IVV       0.057700
     36 HB1          7.6560    -2.6030    -0.4850 hc         1 IVV       0.067700
     37 HG11        10.0560    -2.2880    -1.0640 hc         1 IVV       0.032033
     38 HG1A         9.0330    -2.1050    -2.4880 hc         1 IVV       0.032033
     39 HG1B         9.7010    -0.6800    -1.6930 hc         1 IVV       0.032033
     40 HG21         8.7620     0.0050     0.6690 hc         1 IVV       0.032033
     41 HG2A         7.5620    -1.0320     1.4390 hc         1 IVV       0.032033
     42 HG2B         9.2060    -1.6120     1.2130 hc         1 IVV       0.032033
     43 HN1          5.7960     1.2400    -0.2540 hn         1 IVV       0.317500
     44 HA2          3.9370    -0.3030     1.3910 h1         1 IVV       0.079700
     45 HB2          4.2570     2.6910     0.9890 hc         1 IVV       0.058700
     46 HG12         2.9010     2.8990     3.0440 hc         1 IVV       0.039200
     47 HG1C         1.9560     2.0710     1.8150 hc         1 IVV       0.039200
     48 HG1D         2.6940     1.1530     3.1220 hc         1 IVV       0.039200
     49 HG22         5.2580     0.8590     3.2270 hc         1 IVV       0.039200
     50 HG2C         6.2800     1.6960     2.0590 hc         1 IVV       0.039200
     51 HG2D         5.3540     2.6190     3.2330 hc         1 IVV       0.039200
     52 HN3          1.9090    -0.7300     0.8250 hn         1 IVV       0.330500
     53 HA3          0.7810     0.5270    -1.5950 h1         1 IVV       0.082700
     54 HB3         -0.5720    -1.4270    -1.9290 hc         1 IVV       0.065700
     55 HG13         1.1820    -3.0250    -2.5780 hc         1 IVV       0.040533
     56 HG1E         1.6810    -1.3770    -2.9500 hc         1 IVV       0.040533
     57 HG1F         2.3570    -2.2060    -1.5490 hc         1 IVV       0.040533
     58 HG23        -0.9890    -2.2260     0.3390 hc         1 IVV       0.040533
     59 HG2E        -0.2390    -3.5140    -0.5920 hc         1 IVV       0.040533
     60 HG2F         0.7220    -2.6240     0.5750 hc         1 IVV       0.040533
     61 HN4         -1.5950     0.6020    -1.5850 hn         1 IVV       0.316500
     62 H6          -7.0990    -3.3180     0.9130 h1         1 IVV       0.036700
     63 H6A         -8.5550    -2.3290     1.0430 h1         1 IVV       0.036700
     64 H7          -8.8030    -4.0490    -0.7280 hc         1 IVV       0.037700
     65 H7A         -8.8540    -2.4420    -1.4480 hc         1 IVV       0.037700
     66 H7B         -7.3900    -3.4290    -1.5760 hc         1 IVV       0.037700
     67 HA4         -2.6830     1.3810     1.0480 h1         1 IVV       0.084700
     68 HB4         -3.6780     2.1860    -1.7220 hc         1 IVV       0.041700
     69 HB4A        -4.3160     2.7410    -0.1900 hc         1 IVV       0.041700
     70 HG4         -1.5330     3.3260    -1.2740 hc         1 IVV       0.047700
     71 HP          -5.3010     1.0080     1.4830 hc         1 IVV       0.075200
     72 HPA         -6.1100     0.9870    -0.0940 hc         1 IVV       0.075200
     73 HD14        -2.3980     5.6430    -1.5440 hc         1 IVV       0.025367
     74 HD1A        -3.3570     4.5050    -2.4880 hc         1 IVV       0.025367
     75 HD1B        -3.9800     5.1270    -0.9610 hc         1 IVV       0.025367
     76 HD24        -2.8740     4.3620     1.2700 hc         1 IVV       0.025367
     77 HD2A        -1.4920     3.2670     1.2150 hc         1 IVV       0.025367
     78 HD2B        -1.3290     4.9160     0.6290 hc         1 IVV       0.025367
     79 CP          -5.5600     0.3820     0.6280 c3         1 IVV      -0.332600
     80 O1P         -3.4980    -1.3830     0.7460 o          1 IVV      -0.796500
@<TRIPOS>BOND
     1     1     2 1   
     2     1     5 1   
     3     1    34 1   
     4     1    35 1   
     5     2     3 1   
     6     2     4 1   
     7     2    36 1   
     8     3    37 1   
     9     3    38 1   
    10     3    39 1   
    11     4    40 1   
    12     4    41 1   
    13     4    42 1   
    14     5     6 2   
    15     5     7 1   
    16     7     8 1   
    17     7    43 1   
    18     8     9 1   
    19     8    11 1   
    20     8    44 1   
    21     9    10 2   
    22     9    14 1   
    23    11    12 1   
    24    11    13 1   
    25    11    45 1   
    26    12    46 1   
    27    12    47 1   
    28    12    48 1   
    29    13    49 1   
    30    13    50 1   
    31    13    51 1   
    32    14    15 1   
    33    14    52 1   
    34    15    16 1   
    35    15    18 1   
    36    15    53 1   
    37    16    17 2   
    38    16    21 1   
    39    18    19 1   
    40    18    20 1   
    41    18    54 1   
    42    19    55 1   
    43    19    56 1   
    44    19    57 1   
    45    20    58 1   
    46    20    59 1   
    47    20    60 1   
    48    21    28 1   
    49    21    61 1   
    50    22    24 2   
    51    23    28 1   
    52    23    31 1   
    53    23    79 1   
    54    23    80 1   
    55    24    26 1   
    56    24    79 1   
    57    25    26 1   
    58    25    27 1   
    59    25    62 1   
    60    25    63 1   
    61    27    64 1   
    62    27    65 1   
    63    27    66 1   
    64    28    29 1   
    65    28    67 1   
    66    29    30 1   
    67    29    68 1   
    68    29    69 1   
    69    30    32 1   
    70    30    33 1   
    71    30    70 1   
    72    32    73 1   
    73    32    74 1   
    74    32    75 1   
    75    33    76 1   
    76    33    77 1   
    77    33    78 1   
    78    71    79 1   
    79    72    79 1   
@<TRIPOS>SUBSTRUCTURE
     1 IVV         1 TEMP              0 ****  ****    0 ROOT
