@<TRIPOS>MOLECULE
IVZ
   64    68     1     0     0
SMALL
abcg2


@<TRIPOS>ATOM
      1 C4         -20.4420     8.1920   -16.8770 cc         1 IVZ       0.430900
      2 C5         -20.2790     6.8320   -16.7870 cd         1 IVZ      -0.341600
      3 C6         -21.3380     5.9160   -17.0560 c          1 IVZ       0.636600
      4 C8         -18.4250     7.8800   -16.3300 cd         1 IVZ       0.451800
      5 N1         -22.4970     6.6070   -17.3900 ns         1 IVZ      -0.474500
      6 N3         -21.6340     8.7710   -17.2150 n          1 IVZ      -0.362300
      7 C           -8.2540    -0.1800   -20.0780 c          1 IVZ       0.730000
      8 OXT         -8.9270    -1.2160   -20.2440 o          1 IVZ      -0.727000
      9 CA          -8.7800     1.1020   -20.7680 c3         1 IVZ       0.016500
     10 N           -7.6680     1.9630   -21.1420 n8         1 IVZ      -0.987200
     11 CB          -9.8190     1.7510   -19.8340 c3         1 IVZ      -0.093400
     12 CG         -10.4600     2.9880   -20.4400 c3         1 IVZ      -0.156400
     13 CD         -11.4820     3.6610   -19.5460 c          1 IVZ       0.601100
     14 OE1        -11.5960     3.4110   -18.3590 o          1 IVZ      -0.572100
     15 CBB        -13.1990     5.4710   -19.7000 ca         1 IVZ      -0.027000
     16 CAO        -13.6260     5.4920   -18.3790 ca         1 IVZ      -0.078000
     17 CAM        -13.7420     6.3750   -20.6390 ca         1 IVZ      -0.142000
     18 CAN        -14.7040     7.3020   -20.2990 ca         1 IVZ      -0.094000
     19 CBH        -15.1290     7.3130   -18.9780 ca         1 IVZ      -0.105200
     20 NAW        -16.0560     8.0510   -18.2910 na         1 IVZ      -0.305600
     21 CBG        -14.6010     6.4270   -18.0300 ca         1 IVZ       0.096400
     22 NAT        -15.2020     6.6340   -16.8110 nc         1 IVZ      -0.569100
     23 CBC        -16.0590     7.5970   -17.0120 cd         1 IVZ       0.389800
     24 CAR        -16.9960     8.1350   -15.9820 c3         1 IVZ      -0.126000
     25 N9         -19.2980     8.8380   -16.5970 nc         1 IVZ      -0.721000
     26 CAA        -21.7940    10.2140   -17.2920 c3         1 IVZ       0.103300
     27 C2         -22.7130     7.9700   -17.4840 c          1 IVZ       0.623000
     28 O2         -23.8000     8.4190   -17.7880 o          1 IVZ      -0.561000
     29 O6         -21.3070     4.7000   -17.0210 o          1 IVZ      -0.520000
     30 N7         -18.9640     6.6500   -16.4230 na         1 IVZ      -0.091500
     31 CAS        -18.3000     5.3780   -16.2320 c3         1 IVZ       0.115900
     32 CBA        -17.8320     4.7290   -17.5100 ca         1 IVZ      -0.097300
     33 CAK        -17.1970     3.4930   -17.4140 ca         1 IVZ      -0.094500
     34 CAI        -16.7220     2.8510   -18.5470 ca         1 IVZ      -0.099500
     35 CAH        -16.8760     3.4400   -19.7970 ca         1 IVZ      -0.097000
     36 CAJ        -17.5120     4.6670   -19.8980 ca         1 IVZ      -0.099500
     37 CAL        -17.9920     5.3080   -18.7610 ca         1 IVZ      -0.094500
     38 H1         -23.3090     6.0400   -17.5970 hn         1 IVZ       0.343500
     39 H3          -9.2980     0.8060   -21.6870 h1         1 IVZ       0.039700
     40 H4          -8.0010     2.8520   -21.4940 hn         1 IVZ       0.373000
     41 H5          -7.1210     2.1620   -20.3140 hn         1 IVZ       0.373000
     42 H7         -10.5920     1.0140   -19.6050 hc         1 IVZ       0.062200
     43 H8          -9.3330     2.0070   -18.8880 hc         1 IVZ       0.062200
     44 H9          -9.6960     3.7400   -20.6650 hc         1 IVZ       0.046700
     45 H10        -10.9240     2.7400   -21.4000 hc         1 IVZ       0.046700
     46 H12        -13.2370     4.8120   -17.6390 ha         1 IVZ       0.169000
     47 H13        -13.3910     6.3390   -21.6640 ha         1 IVZ       0.109000
     48 H14        -15.1070     7.9800   -21.0400 ha         1 IVZ       0.112000
     49 H15        -16.6340     8.7890   -18.6640 hn         1 IVZ       0.357000
     50 H17        -16.7430     7.6870   -15.0200 hc         1 IVZ       0.092200
     51 H18        -16.8730     9.2150   -15.8790 hc         1 IVZ       0.092200
     52 H19        -20.8390    10.6780   -17.0680 h1         1 IVZ       0.056700
     53 H20        -22.1060    10.5130   -18.2900 h1         1 IVZ       0.056700
     54 H21        -22.5300    10.5580   -16.5690 h1         1 IVZ       0.056700
     55 H22        -18.9850     4.7170   -15.7030 h1         1 IVZ       0.085700
     56 H23        -17.4520     5.5360   -15.5660 h1         1 IVZ       0.085700
     57 H24        -17.0690     3.0290   -16.4420 ha         1 IVZ       0.108500
     58 H25        -16.2270     1.8930   -18.4540 ha         1 IVZ       0.116000
     59 H26        -16.5010     2.9440   -20.6830 ha         1 IVZ       0.117000
     60 H27        -17.6370     5.1360   -20.8660 ha         1 IVZ       0.116000
     61 H28        -18.4860     6.2650   -18.8720 ha         1 IVZ       0.108500
     62 NE2        -12.2330     4.5870   -20.1990 ns         1 IVZ      -0.160000
     63 O           -7.2290    -0.0550   -19.3770 o          1 IVZ      -0.727000
     64 H11        -12.0370     4.6890   -21.1840 hn         1 IVZ       0.145000
@<TRIPOS>BOND
     1     1     2 2   
     2     1     6 1   
     3     1    25 1   
     4     2     3 1   
     5     2    30 1   
     6     3     5 1   
     7     3    29 2   
     8     4    24 1   
     9     4    25 2   
    10     4    30 1   
    11     5    27 1   
    12     5    38 1   
    13     6    26 1   
    14     6    27 1   
    15     7     8 1   
    16     7     9 1   
    17     7    63 1   
    18     9    10 1   
    19     9    11 1   
    20     9    39 1   
    21    10    40 1   
    22    10    41 1   
    23    11    12 1   
    24    11    42 1   
    25    11    43 1   
    26    12    13 1   
    27    12    44 1   
    28    12    45 1   
    29    13    14 2   
    30    13    62 1   
    31    15    16 ar  
    32    15    17 ar  
    33    15    62 1   
    34    16    21 ar  
    35    16    46 1   
    36    17    18 ar  
    37    17    47 1   
    38    18    19 ar  
    39    18    48 1   
    40    19    20 1   
    41    19    21 ar  
    42    20    23 1   
    43    20    49 1   
    44    21    22 1   
    45    22    23 2   
    46    23    24 1   
    47    24    50 1   
    48    24    51 1   
    49    26    52 1   
    50    26    53 1   
    51    26    54 1   
    52    27    28 2   
    53    30    31 1   
    54    31    32 1   
    55    31    55 1   
    56    31    56 1   
    57    32    33 ar  
    58    32    37 ar  
    59    33    34 ar  
    60    33    57 1   
    61    34    35 ar  
    62    34    58 1   
    63    35    36 ar  
    64    35    59 1   
    65    36    37 ar  
    66    36    60 1   
    67    37    61 1   
    68    62    64 1   
@<TRIPOS>SUBSTRUCTURE
     1 IVZ         1 TEMP              0 ****  ****    0 ROOT
