@<TRIPOS>MOLECULE
IVZ
   64    68     1     0     0
SMALL
No Charge or Current Charge


@<TRIPOS>ATOM
      1 C4         -20.5240     8.0690   -16.9390 cc         1 IVZ       0.430900
      2 C5         -20.3130     6.7450   -16.7600 cd         1 IVZ      -0.341600
      3 C6         -21.3860     5.7670   -16.9510 c          1 IVZ       0.636600
      4 C8         -18.4650     7.9230   -16.4060 cd         1 IVZ       0.451800
      5 N1         -22.5580     6.3480   -17.3150 ns         1 IVZ      -0.474500
      6 N3         -21.7590     8.5630   -17.3020 n          1 IVZ      -0.362300
      7 C           -9.7700    -0.4400   -21.1390 c          1 IVZ       0.730000
      8 OXT        -10.1310    -0.8390   -22.2390 o          1 IVZ      -0.727000
      9 CA          -9.2540     1.0560   -21.0110 c3         1 IVZ       0.016500
     10 N           -7.8130     1.2380   -20.6090 n8         1 IVZ      -0.987200
     11 CB         -10.1770     1.8810   -20.0740 c3         1 IVZ      -0.093400
     12 CG          -9.9370     3.4150   -20.1170 c3         1 IVZ      -0.156400
     13 CD         -10.9690     4.1750   -19.2680 c          1 IVZ       0.601100
     14 OE1        -10.9170     4.1710   -18.0440 o          1 IVZ      -0.572100
     15 CBB        -13.0200     5.6830   -19.6320 ca         1 IVZ      -0.027000
     16 CAO        -13.3760     5.9390   -18.2820 ca         1 IVZ      -0.078000
     17 CAM        -13.7980     6.2470   -20.6730 ca         1 IVZ      -0.142000
     18 CAN        -14.9180     7.0520   -20.3830 ca         1 IVZ      -0.094000
     19 CBH        -15.2300     7.2720   -19.0380 ca         1 IVZ      -0.105200
     20 NAW        -16.2670     7.9830   -18.5060 na         1 IVZ      -0.305600
     21 CBG        -14.4960     6.7400   -18.0180 ca         1 IVZ       0.096400
     22 NAT        -15.0220     7.0780   -16.7840 nc         1 IVZ      -0.569100
     23 CBC        -16.1010     7.8030   -17.1270 cd         1 IVZ       0.389800
     24 CAR        -17.0550     8.3280   -16.1010 c3         1 IVZ      -0.126000
     25 N9         -19.4000     8.8060   -16.7290 nc         1 IVZ      -0.721000
     26 CAA        -21.9910    10.0130   -17.5040 c3         1 IVZ       0.103300
     27 C2         -22.8250     7.6720   -17.5090 c          1 IVZ       0.623000
     28 O2         -23.9390     8.0340   -17.8470 o          1 IVZ      -0.561000
     29 O6         -21.2700     4.5620   -16.8110 o          1 IVZ      -0.520000
     30 N7         -18.9730     6.6240   -16.4130 na         1 IVZ      -0.091500
     31 CAS        -18.2330     5.3760   -16.1360 c3         1 IVZ       0.115900
     32 CBA        -17.5280     4.7550   -17.3450 ca         1 IVZ      -0.097300
     33 CAK        -16.3980     3.9370   -17.1340 ca         1 IVZ      -0.094500
     34 CAI        -15.7140     3.3680   -18.2220 ca         1 IVZ      -0.099500
     35 CAH        -16.1550     3.6060   -19.5330 ca         1 IVZ      -0.097000
     36 CAJ        -17.2870     4.4080   -19.7550 ca         1 IVZ      -0.099500
     37 CAL        -17.9730     4.9770   -18.6680 ca         1 IVZ      -0.094500
     38 H1         -23.3310     5.7200   -17.4640 hn         1 IVZ       0.343500
     39 H3          -9.3530     1.4930   -22.0150 h1         1 IVZ       0.039700
     40 H4          -7.6400     2.2310   -20.4200 hn         1 IVZ       0.373000
     41 H5          -7.6640     0.7810   -19.7010 hn         1 IVZ       0.373000
     42 H7         -11.2190     1.6860   -20.3630 hc         1 IVZ       0.062200
     43 H8         -10.0730     1.5200   -19.0420 hc         1 IVZ       0.062200
     44 H9          -8.9390     3.6320   -19.7190 hc         1 IVZ       0.046700
     45 H10         -9.9990     3.7460   -21.1610 hc         1 IVZ       0.046700
     46 H12        -12.8240     5.5270   -17.4460 ha         1 IVZ       0.169000
     47 H13        -13.5370     6.0560   -21.7110 ha         1 IVZ       0.109000
     48 H14        -15.5220     7.4800   -21.1800 ha         1 IVZ       0.112000
     49 H15        -17.0060     8.4880   -18.9790 hn         1 IVZ       0.357000
     50 H17        -16.7800     7.9670   -15.1040 hc         1 IVZ       0.092200
     51 H18        -16.9770     9.4200   -16.0620 hc         1 IVZ       0.092200
     52 H19        -21.2260    10.6080   -16.9900 h1         1 IVZ       0.056700
     53 H20        -21.9620    10.2440   -18.5760 h1         1 IVZ       0.056700
     54 H21        -22.9710    10.3010   -17.1010 h1         1 IVZ       0.056700
     55 H22        -18.9290     4.6400   -15.7170 h1         1 IVZ       0.085700
     56 H23        -17.4890     5.5830   -15.3560 h1         1 IVZ       0.085700
     57 H24        -16.0410     3.7520   -16.1240 ha         1 IVZ       0.108500
     58 H25        -14.8370     2.7480   -18.0480 ha         1 IVZ       0.116000
     59 H26        -15.6220     3.1720   -20.3750 ha         1 IVZ       0.117000
     60 H27        -17.6300     4.5920   -20.7700 ha         1 IVZ       0.116000
     61 H28        -18.8450     5.5940   -18.8650 ha         1 IVZ       0.108500
     62 NE2        -11.9160     4.8700   -20.0100 ns         1 IVZ      -0.160000
     63 O           -9.7330    -1.1590   -20.1470 o          1 IVZ      -0.727000
     64 H11        -11.8050     4.7750   -21.0110 hn         1 IVZ       0.145000
@<TRIPOS>BOND
     1     1     2 2   
     2     1     6 1   
     3     1    25 1   
     4     2     3 1   
     5     2    30 1   
     6     3     5 1   
     7     3    29 2   
     8     4    24 1   
     9     4    25 2   
    10     4    30 1   
    11     5    27 1   
    12     5    38 1   
    13     6    26 1   
    14     6    27 1   
    15     7     8 1   
    16     7     9 1   
    17     7    63 1   
    18     9    10 1   
    19     9    11 1   
    20     9    39 1   
    21    10    40 1   
    22    10    41 1   
    23    11    12 1   
    24    11    42 1   
    25    11    43 1   
    26    12    13 1   
    27    12    44 1   
    28    12    45 1   
    29    13    14 2   
    30    13    62 1   
    31    15    16 ar  
    32    15    17 ar  
    33    15    62 1   
    34    16    21 ar  
    35    16    46 1   
    36    17    18 ar  
    37    17    47 1   
    38    18    19 ar  
    39    18    48 1   
    40    19    20 1   
    41    19    21 ar  
    42    20    23 1   
    43    20    49 1   
    44    21    22 1   
    45    22    23 2   
    46    23    24 1   
    47    24    50 1   
    48    24    51 1   
    49    26    52 1   
    50    26    53 1   
    51    26    54 1   
    52    27    28 2   
    53    30    31 1   
    54    31    32 1   
    55    31    55 1   
    56    31    56 1   
    57    32    33 ar  
    58    32    37 ar  
    59    33    34 ar  
    60    33    57 1   
    61    34    35 ar  
    62    34    58 1   
    63    35    36 ar  
    64    35    59 1   
    65    36    37 ar  
    66    36    60 1   
    67    37    61 1   
    68    62    64 1   
@<TRIPOS>SUBSTRUCTURE
     1 IVZ         1 TEMP              0 ****  ****    0 ROOT
