@<TRIPOS>MOLECULE
IW0
   39    41     1     0     0
SMALL
No Charge or Current Charge


@<TRIPOS>ATOM
      1 C10        -22.4040    30.8230   -24.2040 c3         1 IW0       0.136900
      2 C13        -25.4220    32.1400   -26.2270 ca         1 IW0      -0.102000
      3 C15        -24.7760    33.8340   -24.6170 ca         1 IW0      -0.108000
      4 C22        -21.6760    28.8650   -25.7240 cc         1 IW0       0.406700
      5 C02        -24.8110    27.3300   -22.9720 ca         1 IW0       0.286000
      6 C04        -23.7040    26.1750   -24.6140 ca         1 IW0       0.457900
      7 C07        -22.9860    27.3520   -24.9140 ca         1 IW0      -0.101600
      8 C08        -23.2530    28.4790   -24.1780 ca         1 IW0       0.134500
      9 C11        -23.5350    31.7320   -24.7140 ca         1 IW0      -0.112300
     10 C12        -24.3870    31.3110   -25.7660 ca         1 IW0      -0.073000
     11 C14        -25.6160    33.4040   -25.6550 ca         1 IW0      -0.092000
     12 C16        -23.7460    33.0080   -24.1330 ca         1 IW0       0.272000
     13 N03        -24.6270    26.1630   -23.6330 nb         1 IW0      -0.284000
     14 N05        -23.4810    25.0000   -25.3240 nu         1 IW0      -0.907100
     15 N09        -22.4250    29.4330   -24.6930 na         1 IW0      -0.284300
     16 N17        -22.9240    33.4900   -23.1140 nu         1 IW0      -0.959100
     17 N23        -22.0010    27.5680   -25.8880 nd         1 IW0      -0.547100
     18 N24        -24.1690    28.5000   -23.1920 nb         1 IW0      -0.214000
     19 S18        -23.3380    33.5540   -21.5100 s6         1 IW0       1.232100
     20 H101       -22.4380    30.7880   -23.1070 h1         1 IW0       0.081700
     21 H102       -21.4410    31.2690   -24.4850 h1         1 IW0       0.081700
     22 H131       -26.0680    31.8030   -27.0350 ha         1 IW0       0.125000
     23 H151       -24.9170    34.8260   -24.1990 ha         1 IW0       0.122000
     24 H221       -20.9450    29.4260   -26.2950 h5         1 IW0       0.064800
     25 H062       -23.7510    22.9600   -25.8550 h1         1 IW0       0.048700
     26 H063       -23.9750    23.3160   -24.1250 h1         1 IW0       0.048700
     27 H061       -25.2270    23.7880   -25.3010 h1         1 IW0       0.048700
     28 H121       -24.2580    30.3400   -26.2380 ha         1 IW0       0.144000
     29 H141       -26.4100    34.0520   -26.0200 ha         1 IW0       0.122000
     30 H193       -24.9530    34.7850   -20.3330 h1         1 IW0       0.105700
     31 H191       -24.4030    35.6240   -21.8360 h1         1 IW0       0.105700
     32 H192       -25.5510    34.2270   -21.9410 h1         1 IW0       0.105700
     33 H051       -22.7690    25.0860   -26.0530 hn         1 IW0       0.518000
     34 H171       -22.0100    33.0660   -23.0550 hn         1 IW0       0.506000
     35 Cl01       -26.0130    27.3240   -21.6930 cl         1 IW0      -0.146000
     36 C19        -24.7150    34.6720   -21.3950 c3         1 IW0      -0.353100
     37 O20        -22.1740    34.1420   -20.8490 o          1 IW0      -0.546500
     38 C06        -24.1440    23.6960   -25.1410 c3         1 IW0       0.222100
     39 O21        -23.7790    32.2010   -21.1700 o          1 IW0      -0.546500
@<TRIPOS>BOND
     1     1     9 1   
     2     1    15 1   
     3     1    20 1   
     4     1    21 1   
     5     2    10 ar  
     6     2    11 ar  
     7     2    22 1   
     8     3    11 ar  
     9     3    12 ar  
    10     3    23 1   
    11     4    15 1   
    12     4    17 2   
    13     4    24 1   
    14     5    13 ar  
    15     5    18 ar  
    16     5    35 1   
    17     6     7 ar  
    18     6    13 ar  
    19     6    14 1   
    20     7     8 ar  
    21     7    17 1   
    22     8    15 1   
    23     8    18 ar  
    24     9    10 ar  
    25     9    12 ar  
    26    10    28 1   
    27    11    29 1   
    28    12    16 1   
    29    14    33 1   
    30    14    38 1   
    31    16    19 1   
    32    16    34 1   
    33    19    36 1   
    34    19    37 2   
    35    19    39 2   
    36    25    38 1   
    37    26    38 1   
    38    27    38 1   
    39    30    36 1   
    40    31    36 1   
    41    32    36 1   
@<TRIPOS>SUBSTRUCTURE
     1 IW0         1 TEMP              0 ****  ****    0 ROOT
