@<TRIPOS>MOLECULE
IW0
   39    41     1     0     0
SMALL
abcg2


@<TRIPOS>ATOM
      1 C10        -23.8260    30.4900   -22.8670 c3         1 IW0       0.136900
      2 C13        -26.5080    31.9000   -25.1550 ca         1 IW0      -0.102000
      3 C15        -24.7450    33.5240   -25.0060 ca         1 IW0      -0.108000
      4 C22        -22.0380    29.2830   -24.2090 cc         1 IW0       0.406700
      5 C02        -25.3320    26.5070   -23.8230 ca         1 IW0       0.286000
      6 C04        -23.3750    26.1020   -24.9530 ca         1 IW0       0.457900
      7 C07        -22.9720    27.4050   -24.5820 ca         1 IW0      -0.101600
      8 C08        -23.8730    28.1440   -23.8220 ca         1 IW0       0.134500
      9 C11        -24.5590    31.4390   -23.7860 ca         1 IW0      -0.112300
     10 C12        -25.8000    31.0620   -24.3030 ca         1 IW0      -0.073000
     11 C14        -25.9800    33.1380   -25.5070 ca         1 IW0      -0.092000
     12 C16        -24.0350    32.6850   -24.1500 ca         1 IW0       0.272000
     13 N03        -24.5930    25.6810   -24.5450 nb         1 IW0      -0.284000
     14 N05        -22.6070    25.2850   -25.6770 nu         1 IW0      -0.907100
     15 N09        -23.2610    29.3470   -23.5850 na         1 IW0      -0.284300
     16 N17        -22.7700    33.1440   -23.6630 nu         1 IW0      -0.959100
     17 N23        -21.8240    28.1380   -24.8150 nd         1 IW0      -0.547100
     18 N24        -25.0840    27.7320   -23.4090 nb         1 IW0      -0.214000
     19 S18        -22.6240    33.9170   -22.2160 s6         1 IW0       1.232100
     20 H101       -24.5090    30.0920   -22.1190 h1         1 IW0       0.081700
     21 H102       -23.0120    30.9830   -22.3460 h1         1 IW0       0.081700
     22 H131       -27.4710    31.5880   -25.5390 ha         1 IW0       0.125000
     23 H151       -24.3130    34.4780   -25.2780 ha         1 IW0       0.122000
     24 H221       -21.3500    30.1130   -24.1720 h5         1 IW0       0.064800
     25 H062       -22.1870    23.5170   -26.6580 h1         1 IW0       0.048700
     26 H063       -23.1890    23.3160   -25.2070 h1         1 IW0       0.048700
     27 H061       -23.9030    23.9690   -26.6900 h1         1 IW0       0.048700
     28 H121       -26.2120    30.1010   -24.0250 ha         1 IW0       0.144000
     29 H141       -26.5240    33.7970   -26.1710 ha         1 IW0       0.122000
     30 H193       -22.9670    36.1510   -21.6390 h1         1 IW0       0.105700
     31 H191       -22.3230    35.9790   -23.3070 h1         1 IW0       0.105700
     32 H192       -24.0500    35.6340   -22.9640 h1         1 IW0       0.105700
     33 H051       -21.7070    25.6330   -25.9650 hn         1 IW0       0.518000
     34 H171       -21.9360    32.6220   -23.9000 hn         1 IW0       0.506000
     35 CL01       -26.8990    25.8610   -23.3440 cl         1 IW0      -0.146000
     36 C19        -23.0340    35.6010   -22.5760 c3         1 IW0      -0.353100
     37 O20        -21.2220    33.8300   -21.8700 o          1 IW0      -0.546500
     38 C06        -23.0000    23.9460   -26.0780 c3         1 IW0       0.222100
     39 O21        -23.6070    33.4180   -21.2790 o          1 IW0      -0.546500
@<TRIPOS>BOND
     1     1     9 1   
     2     1    15 1   
     3     1    20 1   
     4     1    21 1   
     5     2    10 ar  
     6     2    11 ar  
     7     2    22 1   
     8     3    11 ar  
     9     3    12 ar  
    10     3    23 1   
    11     4    15 1   
    12     4    17 2   
    13     4    24 1   
    14     5    13 ar  
    15     5    18 ar  
    16     5    35 1   
    17     6     7 ar  
    18     6    13 ar  
    19     6    14 1   
    20     7     8 ar  
    21     7    17 1   
    22     8    15 1   
    23     8    18 ar  
    24     9    10 ar  
    25     9    12 ar  
    26    10    28 1   
    27    11    29 1   
    28    12    16 1   
    29    14    33 1   
    30    14    38 1   
    31    16    19 1   
    32    16    34 1   
    33    19    36 1   
    34    19    37 2   
    35    19    39 2   
    36    25    38 1   
    37    26    38 1   
    38    27    38 1   
    39    30    36 1   
    40    31    36 1   
    41    32    36 1   
@<TRIPOS>SUBSTRUCTURE
     1 IW0         1 TEMP              0 ****  ****    0 ROOT
