@<TRIPOS>MOLECULE
IW1
   27    28     1     0     0
SMALL
No Charge or Current Charge


@<TRIPOS>ATOM
      1 OAA         -4.3440     0.5780     0.1250 oh         1 IW1      -0.504100
      2 ClAC         3.2940    -2.2080     1.7960 cl         1 IW1      -0.191500
      3 BrAD        -3.8080    -2.4130    -0.5610 br         1 IW1      -0.078600
      4 BrAE        -2.6340     3.1060     0.7610 br         1 IW1      -0.078600
      5 CAF          1.2200    -0.6050    -0.0230 ce         1 IW1      -0.124200
      6 CAG          2.3010     0.2250     0.0400 cf         1 IW1      -0.160200
      7 CAH          6.5140    -0.7180    -0.1260 ca         1 IW1      -0.093000
      8 CAI          5.9970     0.3750    -0.8360 ca         1 IW1      -0.102500
      9 CAJ          5.6560    -1.5050     0.6560 ca         1 IW1      -0.102500
     10 CAK         -1.1820    -1.2810    -0.2360 ca         1 IW1      -0.018000
     11 CAL         -0.6890     1.0340     0.3170 ca         1 IW1      -0.018000
     12 CAM         -3.0060     0.3030     0.0910 ca         1 IW1       0.204100
     13 CAN          4.6260     0.6770    -0.7730 ca         1 IW1       0.130000
     14 CAO          4.2820    -1.2120     0.7240 ca         1 IW1       0.130000
     15 CAP         -2.5590    -0.9990    -0.2020 ca         1 IW1      -0.097900
     16 CAQ         -2.0660     1.3180     0.3520 ca         1 IW1      -0.097900
     17 CAR         -0.2350    -0.2690     0.0200 ca         1 IW1      -0.093800
     18 CAS          3.7430    -0.1170    -0.0010 ca         1 IW1      -0.035800
     19 HOAA        -4.8240    -0.2530    -0.0810 ho         1 IW1       0.487000
     20 HAF          1.4180    -1.6710    -0.1490 ha         1 IW1       0.182000
     21 HAG          2.1120     1.2950     0.1250 ha         1 IW1       0.191000
     22 HAH          7.5760    -0.9490    -0.1740 ha         1 IW1       0.125000
     23 HAI          6.6580     0.9900    -1.4410 ha         1 IW1       0.134500
     24 HAJ          6.0570    -2.3430     1.2220 ha         1 IW1       0.134500
     25 HAK         -0.8520    -2.2920    -0.4650 ha         1 IW1       0.134500
     26 HAL          0.0150     1.8330     0.5290 ha         1 IW1       0.134500
     27 ClAB         4.0360     2.0530    -1.7100 cl         1 IW1      -0.191500
@<TRIPOS>BOND
     1     1    12 1   
     2     1    19 1   
     3     2    14 1   
     4     3    15 1   
     5     4    16 1   
     6     5     6 2   
     7     5    17 1   
     8     5    20 1   
     9     6    18 1   
    10     6    21 1   
    11     7     8 ar  
    12     7     9 ar  
    13     7    22 1   
    14     8    13 ar  
    15     8    23 1   
    16     9    14 ar  
    17     9    24 1   
    18    10    15 ar  
    19    10    17 ar  
    20    10    25 1   
    21    11    16 ar  
    22    11    17 ar  
    23    11    26 1   
    24    12    15 ar  
    25    12    16 ar  
    26    13    18 ar  
    27    13    27 1   
    28    14    18 ar  
@<TRIPOS>SUBSTRUCTURE
     1 IW1         1 TEMP              0 ****  ****    0 ROOT
