@<TRIPOS>MOLECULE
IW1
   27    28     1     0     0
SMALL
abcg2


@<TRIPOS>ATOM
      1 OAA         -4.2420     0.6000     0.1400 oh         1 IW1      -0.504100
      2 CLAC         3.2930    -2.1630     1.8140 cl         1 IW1      -0.191500
      3 BRAD        -3.6730    -2.4190    -0.5040 br         1 IW1      -0.078600
      4 BRAE        -2.6210     3.0140     0.6840 br         1 IW1      -0.078600
      5 CAF          1.2500    -0.5840    -0.0750 ce         1 IW1      -0.124200
      6 CAG          2.2640     0.2570     0.1390 cf         1 IW1      -0.160200
      7 CAH          6.4250    -0.7270    -0.1470 ca         1 IW1      -0.093000
      8 CAI          5.9070     0.3510    -0.8470 ca         1 IW1      -0.102500
      9 CAJ          5.6010    -1.4990     0.6540 ca         1 IW1      -0.102500
     10 CAK         -1.1010    -1.2660    -0.2420 ca         1 IW1      -0.018000
     11 CAL         -0.6510     1.0270     0.2700 ca         1 IW1      -0.018000
     12 CAM         -2.9550     0.2690     0.0810 ca         1 IW1       0.204100
     13 CAN          4.5580     0.6360    -0.7340 ca         1 IW1       0.130000
     14 CAO          4.2530    -1.1910     0.7490 ca         1 IW1       0.130000
     15 CAP         -2.4610    -1.0080    -0.1930 ca         1 IW1      -0.097900
     16 CAQ         -2.0060     1.2750     0.3110 ca         1 IW1      -0.097900
     17 CAR         -0.1730    -0.2550    -0.0110 ca         1 IW1      -0.093800
     18 CAS          3.6810    -0.1200     0.0540 ca         1 IW1      -0.035800
     19 HOAA        -4.8250    -0.1450    -0.0540 ho         1 IW1       0.487000
     20 HAF          1.4670    -1.6130    -0.3390 ha         1 IW1       0.182000
     21 HAG          2.0760     1.3020     0.3640 ha         1 IW1       0.191000
     22 HAH          7.4770    -0.9650    -0.2260 ha         1 IW1       0.125000
     23 HAI          6.5420     0.9590    -1.4760 ha         1 IW1       0.134500
     24 HAJ          6.0060    -2.3340     1.2090 ha         1 IW1       0.134500
     25 HAK         -0.7540    -2.2670    -0.4640 ha         1 IW1       0.134500
     26 HAL          0.0390     1.8400     0.4520 ha         1 IW1       0.134500
     27 CLAB         3.9260     1.9770    -1.6310 cl         1 IW1      -0.191500
@<TRIPOS>BOND
     1     1    12 1   
     2     1    19 1   
     3     2    14 1   
     4     3    15 1   
     5     4    16 1   
     6     5     6 2   
     7     5    17 1   
     8     5    20 1   
     9     6    18 1   
    10     6    21 1   
    11     7     8 ar  
    12     7     9 ar  
    13     7    22 1   
    14     8    13 ar  
    15     8    23 1   
    16     9    14 ar  
    17     9    24 1   
    18    10    15 ar  
    19    10    17 ar  
    20    10    25 1   
    21    11    16 ar  
    22    11    17 ar  
    23    11    26 1   
    24    12    15 ar  
    25    12    16 ar  
    26    13    18 ar  
    27    13    27 1   
    28    14    18 ar  
@<TRIPOS>SUBSTRUCTURE
     1 IW1         1 TEMP              0 ****  ****    0 ROOT
