@<TRIPOS>MOLECULE
IW2
   29    30     1     0     0
SMALL
No Charge or Current Charge


@<TRIPOS>ATOM
      1 OAA          4.2800    -0.1040     0.3770 oh         1 IW2      -0.507100
      2 ClAC        -3.5410     2.7610     0.2720 cl         1 IW2      -0.199000
      3 BrAD         3.1230    -2.9900     0.1080 br         1 IW2      -0.082100
      4 BrAE         3.1870     2.8070     0.1950 br         1 IW2      -0.082100
      5 CAF         -6.4490     0.0160    -0.3000 ca         1 IW2      -0.095000
      6 CAG         -5.7680    -1.2060    -0.1880 ca         1 IW2      -0.100000
      7 CAH         -5.7440     1.2200    -0.1490 ca         1 IW2      -0.100000
      8 CAI          0.8570    -1.2750    -0.3340 ca         1 IW2      -0.028500
      9 CAJ          0.8830     1.1580    -0.2980 ca         1 IW2      -0.028500
     10 CAK         -1.3180    -0.0290    -0.7540 c3         1 IW2      -0.022100
     11 CAL         -2.1610    -0.0410     0.5380 c3         1 IW2      -0.033100
     12 CAM         -4.3890    -1.2290     0.0800 ca         1 IW2       0.126000
     13 CAN         -4.3640     1.2070     0.1190 ca         1 IW2       0.126000
     14 CAO          2.9420    -0.0880     0.1040 ca         1 IW2       0.197100
     15 CAP          2.2340    -1.2960    -0.0540 ca         1 IW2      -0.093400
     16 CAQ          2.2610     1.1400    -0.0180 ca         1 IW2      -0.093400
     17 CAR          0.1760    -0.0490    -0.4590 ca         1 IW2      -0.118300
     18 CAS         -3.6670    -0.0210     0.2470 ca         1 IW2      -0.060300
     19 HOAA         4.5810     0.8270     0.4500 ho         1 IW2       0.485000
     20 HAF         -7.5170     0.0300    -0.5090 ha         1 IW2       0.125000
     21 HAG         -6.3100    -2.1400    -0.3130 ha         1 IW2       0.134500
     22 HAH         -6.2660     2.1680    -0.2440 ha         1 IW2       0.134500
     23 HAI          0.3170    -2.2130    -0.4520 ha         1 IW2       0.134500
     24 HAJ          0.3640     2.1100    -0.3880 ha         1 IW2       0.134500
     25 HAK         -1.5930    -0.8920    -1.3720 hc         1 IW2       0.056700
     26 HAKA        -1.5750     0.8600    -1.3430 hc         1 IW2       0.056700
     27 HAL         -1.8880    -0.9190     1.1350 hc         1 IW2       0.065200
     28 HALA        -1.8700     0.8120     1.1620 hc         1 IW2       0.065200
     29 ClAB        -3.5980    -2.8050     0.1820 cl         1 IW2      -0.199000
@<TRIPOS>BOND
     1     1    14 1   
     2     1    19 1   
     3     2    13 1   
     4     3    15 1   
     5     4    16 1   
     6     5     6 ar  
     7     5     7 ar  
     8     5    20 1   
     9     6    12 ar  
    10     6    21 1   
    11     7    13 ar  
    12     7    22 1   
    13     8    15 ar  
    14     8    17 ar  
    15     8    23 1   
    16     9    16 ar  
    17     9    17 ar  
    18     9    24 1   
    19    10    11 1   
    20    10    17 1   
    21    10    25 1   
    22    10    26 1   
    23    11    18 1   
    24    11    27 1   
    25    11    28 1   
    26    12    18 ar  
    27    12    29 1   
    28    13    18 ar  
    29    14    15 ar  
    30    14    16 ar  
@<TRIPOS>SUBSTRUCTURE
     1 IW2         1 TEMP              0 ****  ****    0 ROOT
