@<TRIPOS>MOLECULE
IW2
   29    30     1     0     0
SMALL
bcc


@<TRIPOS>ATOM
      1 OAA          4.2160    -0.0930     0.3680 oh         1 IW2      -0.468100
      2 CLAC        -3.4550     2.7090     0.0430 cl         1 IW2      -0.107400
      3 BRAD         3.2520    -2.8340    -0.2160 br         1 IW2      -0.082100
      4 BRAE         2.9500     2.7730     0.4910 br         1 IW2      -0.082100
      5 CAF         -6.3880     0.0550    -0.2830 ca         1 IW2      -0.113000
      6 CAG         -5.7430    -1.1540    -0.0830 ca         1 IW2      -0.118000
      7 CAH         -5.6750     1.2410    -0.2360 ca         1 IW2      -0.118000
      8 CAI          0.8980    -1.2780    -0.4860 ca         1 IW2      -0.046500
      9 CAJ          0.7770     1.0870    -0.1910 ca         1 IW2      -0.046500
     10 CAK         -1.3340    -0.1410    -0.7580 c3         1 IW2      -0.022100
     11 CAL         -2.1490    -0.0130     0.5380 c3         1 IW2      -0.033100
     12 CAM         -4.3830    -1.1570     0.1790 ca         1 IW2       0.034400
     13 CAN         -4.3150     1.2010     0.0270 ca         1 IW2       0.034400
     14 CAO          2.9090    -0.0450     0.1030 ca         1 IW2       0.197100
     15 CAP          2.2520    -1.2390    -0.2000 ca         1 IW2      -0.093400
     16 CAQ          2.1310     1.1170     0.0980 ca         1 IW2      -0.093400
     17 CAR          0.1430    -0.1130    -0.4860 ca         1 IW2      -0.118300
     18 CAS         -3.6230     0.0110     0.2620 ca         1 IW2      -0.060300
     19 HOAA         4.5780     0.7750     0.5880 ho         1 IW2       0.446000
     20 HAF         -7.4500     0.0730    -0.4840 ha         1 IW2       0.143000
     21 HAG         -6.2920    -2.0840    -0.1340 ha         1 IW2       0.152500
     22 HAH         -6.1700     2.1870    -0.4050 ha         1 IW2       0.152500
     23 HAI          0.4240    -2.2240    -0.7170 ha         1 IW2       0.152500
     24 HAJ          0.2060     2.0080    -0.1900 ha         1 IW2       0.152500
     25 HAK         -1.6020    -1.0720    -1.2610 hc         1 IW2       0.056700
     26 HAKA        -1.6000     0.6710    -1.4380 hc         1 IW2       0.056700
     27 HAL         -1.9060    -0.8420     1.2030 hc         1 IW2       0.065200
     28 HALA        -1.8550     0.8950     1.0640 hc         1 IW2       0.065200
     29 CLAB        -3.6090    -2.6960     0.3950 cl         1 IW2      -0.107400
@<TRIPOS>BOND
     1     1    14 1   
     2     1    19 1   
     3     2    13 1   
     4     3    15 1   
     5     4    16 1   
     6     5     6 ar  
     7     5     7 ar  
     8     5    20 1   
     9     6    12 ar  
    10     6    21 1   
    11     7    13 ar  
    12     7    22 1   
    13     8    15 ar  
    14     8    17 ar  
    15     8    23 1   
    16     9    16 ar  
    17     9    17 ar  
    18     9    24 1   
    19    10    11 1   
    20    10    17 1   
    21    10    25 1   
    22    10    26 1   
    23    11    18 1   
    24    11    27 1   
    25    11    28 1   
    26    12    18 ar  
    27    12    29 1   
    28    13    18 ar  
    29    14    15 ar  
    30    14    16 ar  
@<TRIPOS>SUBSTRUCTURE
     1 IW2         1 TEMP              0 ****  ****    0 ROOT
