@<TRIPOS>MOLECULE
IW3
   29    30     1     0     0
SMALL
bcc


@<TRIPOS>ATOM
      1 NAA          8.1720    -0.6330     0.0770 nv         1 IW3      -0.830200
      2 BRAC        -3.3000    -2.5450     0.1610 br         1 IW3      -0.083100
      3 BRAD        -2.3580     3.0300    -0.0480 br         1 IW3      -0.083100
      4 CAE          2.5900     0.3250     0.0450 ce         1 IW3      -0.073200
      5 CAF          1.5890    -0.5680     0.0530 cf         1 IW3      -0.123200
      6 CAG          6.2960     0.8880     0.0500 ca         1 IW3      -0.204000
      7 CAH          5.9120    -1.4820     0.0190 ca         1 IW3      -0.204000
      8 CAI          4.9300     1.0970     0.0540 ca         1 IW3      -0.068000
      9 CAJ          4.5510    -1.2590     0.0240 ca         1 IW3      -0.068000
     10 CAK         -0.7520    -1.3130     0.0960 ca         1 IW3      -0.046000
     11 CAL         -0.3480     1.0400     0.0090 ca         1 IW3      -0.046000
     12 CAM          6.8200    -0.4110     0.0320 ca         1 IW3       0.170600
     13 CAN         -2.6390     0.2180     0.0600 ca         1 IW3       0.196100
     14 CAO         -2.1160    -1.0750     0.1000 ca         1 IW3      -0.092900
     15 CAP         -1.7090     1.2640     0.0130 ca         1 IW3      -0.092900
     16 CAQ          4.0180     0.0360     0.0420 ca         1 IW3      -0.111800
     17 CAR          0.1620    -0.2610     0.0530 ca         1 IW3      -0.077800
     18 HNAA         8.7630     0.1250    -0.2260 hn         1 IW3       0.399800
     19 HNAB         8.4940    -1.5280    -0.2520 hn         1 IW3       0.399800
     20 HOAB        -4.4990    -0.2540     0.0960 ho         1 IW3       0.446000
     21 HAE          2.3510     1.3850     0.0410 ha         1 IW3       0.118000
     22 HAF          1.8200    -1.6280     0.0630 ha         1 IW3       0.124000
     23 HAG          6.9690     1.7370     0.0600 ha         1 IW3       0.130500
     24 HAH          6.2860    -2.4990     0.0030 ha         1 IW3       0.130500
     25 HAI          4.5590     2.1150     0.0660 ha         1 IW3       0.128000
     26 HAJ          3.8920    -2.1190     0.0080 ha         1 IW3       0.128000
     27 HAK         -0.3880    -2.3330     0.1280 ha         1 IW3       0.150000
     28 HAL          0.3240     1.8870    -0.0280 ha         1 IW3       0.150000
     29 OAB         -3.9340     0.5290     0.0640 oh         1 IW3      -0.466100
@<TRIPOS>BOND
     1     1    12 1   
     2     1    18 1   
     3     1    19 1   
     4     2    14 1   
     5     3    15 1   
     6     4     5 2   
     7     4    16 1   
     8     4    21 1   
     9     5    17 1   
    10     5    22 1   
    11     6     8 ar  
    12     6    12 ar  
    13     6    23 1   
    14     7     9 ar  
    15     7    12 ar  
    16     7    24 1   
    17     8    16 ar  
    18     8    25 1   
    19     9    16 ar  
    20     9    26 1   
    21    10    14 ar  
    22    10    17 ar  
    23    10    27 1   
    24    11    15 ar  
    25    11    17 ar  
    26    11    28 1   
    27    13    14 ar  
    28    13    15 ar  
    29    13    29 1   
    30    20    29 1   
@<TRIPOS>SUBSTRUCTURE
     1 IW3         1 TEMP              0 ****  ****    0 ROOT
