@<TRIPOS>MOLECULE
IW3
   29    30     1     0     0
SMALL
No Charge or Current Charge


@<TRIPOS>ATOM
      1 NAA          8.2060    -0.6650     0.0230 nv         1 IW3      -1.079000
      2 BrAC        -3.3800    -2.5880     0.2510 br         1 IW3      -0.083100
      3 BrAD        -2.4300     3.1170    -0.1260 br         1 IW3      -0.083100
      4 CAE          2.6100     0.3510     0.0060 ce         1 IW3      -0.123200
      5 CAF          1.5580    -0.5160     0.0660 cf         1 IW3      -0.173200
      6 CAG          6.3750     0.8820     0.0920 ca         1 IW3      -0.186000
      7 CAH          5.9600    -1.5000    -0.0590 ca         1 IW3      -0.186000
      8 CAI          4.9910     1.1260     0.0860 ca         1 IW3      -0.050000
      9 CAJ          4.5730    -1.2630    -0.0640 ca         1 IW3      -0.050000
     10 CAK         -0.8030    -1.3140     0.1420 ca         1 IW3      -0.028000
     11 CAL         -0.4040     1.0780    -0.0160 ca         1 IW3      -0.028000
     12 CAM          6.8590    -0.4300     0.0190 ca         1 IW3       0.309000
     13 CAN         -2.6900     0.2280     0.0630 ca         1 IW3       0.196100
     14 CAO         -2.1900    -1.0850     0.1420 ca         1 IW3      -0.092900
     15 CAP         -1.7910     1.3090    -0.0160 ca         1 IW3      -0.092900
     16 CAQ          4.0750     0.0560     0.0110 ca         1 IW3      -0.111800
     17 CAR          0.1050    -0.2370     0.0630 ca         1 IW3      -0.077800
     18 HNAA         8.8540     0.1150    -0.0780 hn         1 IW3       0.455000
     19 HNAB         8.5580    -1.5970    -0.1860 hn         1 IW3       0.455000
     20 HOAB        -4.4840    -0.4210     0.1240 ho         1 IW3       0.485000
     21 HAE          2.3900     1.4160    -0.0480 ha         1 IW3       0.168000
     22 HAF          1.7920    -1.5790     0.1300 ha         1 IW3       0.174000
     23 HAG          7.0670     1.7180     0.1530 ha         1 IW3       0.112500
     24 HAH          6.3290    -2.5200    -0.1160 ha         1 IW3       0.112500
     25 HAI          4.6310     2.1520     0.1440 ha         1 IW3       0.110000
     26 HAJ          3.8990    -2.1120    -0.1310 ha         1 IW3       0.110000
     27 HAK         -0.4330    -2.3350     0.2040 ha         1 IW3       0.132000
     28 HAL          0.2660     1.9300    -0.0780 ha         1 IW3       0.132000
     29 OAB         -4.0380     0.4510     0.0630 oh         1 IW3      -0.505100
@<TRIPOS>BOND
     1     1    12 1   
     2     1    18 1   
     3     1    19 1   
     4     2    14 1   
     5     3    15 1   
     6     4     5 2   
     7     4    16 1   
     8     4    21 1   
     9     5    17 1   
    10     5    22 1   
    11     6     8 ar  
    12     6    12 ar  
    13     6    23 1   
    14     7     9 ar  
    15     7    12 ar  
    16     7    24 1   
    17     8    16 ar  
    18     8    25 1   
    19     9    16 ar  
    20     9    26 1   
    21    10    14 ar  
    22    10    17 ar  
    23    10    27 1   
    24    11    15 ar  
    25    11    17 ar  
    26    11    28 1   
    27    13    14 ar  
    28    13    15 ar  
    29    13    29 1   
    30    20    29 1   
@<TRIPOS>SUBSTRUCTURE
     1 IW3         1 TEMP              0 ****  ****    0 ROOT
