@<TRIPOS>MOLECULE
IW4
   30    31     1     0     0
SMALL
No Charge or Current Charge


@<TRIPOS>ATOM
      1 NAA          7.3850    -1.2400    -0.0870 nv         1 IW4      -1.074000
      2 BrAC        -3.5450     2.4970    -0.1110 br         1 IW4      -0.102100
      3 BrAD        -2.1600    -3.1430     0.1980 br         1 IW4      -0.102100
      4 CAE          2.6430     0.0040     0.0710 ce         1 IW4      -0.153200
      5 CAF          1.5280     0.7900     0.0260 cf         1 IW4      -0.144200
      6 CAG          5.8460     2.0950     0.1160 ca         1 IW4      -0.073000
      7 CAH          6.8210     1.0870     0.0440 ca         1 IW4      -0.173000
      8 CAI          4.4820     1.7550     0.1250 ca         1 IW4      -0.142000
      9 CAJ          5.0730    -0.5970    -0.0070 ca         1 IW4      -0.168000
     10 CAK         -0.8870     1.4070    -0.0280 ca         1 IW4      -0.016000
     11 CAL         -0.3070    -0.9480     0.1010 ca         1 IW4      -0.016000
     12 CAM          6.4340    -0.2580    -0.0170 ca         1 IW4       0.290000
     13 CAN         -2.2530     1.0750    -0.0220 ca         1 IW4      -0.102400
     14 CAO         -1.6730    -1.2840     0.1070 ca         1 IW4      -0.102400
     15 CAP         -2.6540    -0.2740     0.0460 ca         1 IW4       0.370000
     16 CAQ          4.0820     0.4030     0.0620 ca         1 IW4      -0.014800
     17 CAR          0.1000     0.4020     0.0340 ca         1 IW4      -0.103800
     18 HNAA         7.1080    -2.2020    -0.2740 hn         1 IW4       0.447000
     19 HNAB         8.3620    -0.9930    -0.2370 hn         1 IW4       0.447000
     20 HNAC        -4.6710     0.1150    -0.1880 hn         1 IW4       0.478000
     21 HNAD        -4.2600    -1.5720    -0.0950 hn         1 IW4       0.478000
     22 HAE          2.5040    -1.0750     0.1170 ha         1 IW4       0.170000
     23 HAF          1.6810     1.8680    -0.0280 ha         1 IW4       0.174000
     24 HAG          6.1460     3.1400     0.1660 ha         1 IW4       0.110000
     25 HAH          7.8740     1.3550     0.0380 ha         1 IW4       0.112000
     26 HAI          3.7480     2.5520     0.1860 ha         1 IW4       0.113000
     27 HAJ          4.7820    -1.6430    -0.0550 ha         1 IW4       0.110000
     28 HAK         -0.5950     2.4530    -0.0810 ha         1 IW4       0.129500
     29 HAL          0.4250    -1.7480     0.1500 ha         1 IW4       0.129500
     30 NAB         -3.9890    -0.6020     0.0510 nv         1 IW4      -1.071000
@<TRIPOS>BOND
     1     1    12 1   
     2     1    18 1   
     3     1    19 1   
     4     2    13 1   
     5     3    14 1   
     6     4     5 2   
     7     4    16 1   
     8     4    22 1   
     9     5    17 1   
    10     5    23 1   
    11     6     7 ar  
    12     6     8 ar  
    13     6    24 1   
    14     7    12 ar  
    15     7    25 1   
    16     8    16 ar  
    17     8    26 1   
    18     9    12 ar  
    19     9    16 ar  
    20     9    27 1   
    21    10    13 ar  
    22    10    17 ar  
    23    10    28 1   
    24    11    14 ar  
    25    11    17 ar  
    26    11    29 1   
    27    13    15 ar  
    28    14    15 ar  
    29    15    30 1   
    30    20    30 1   
    31    21    30 1   
@<TRIPOS>SUBSTRUCTURE
     1 IW4         1 TEMP              0 ****  ****    0 ROOT
