@<TRIPOS>MOLECULE
IW4
   30    31     1     0     0
SMALL
abcg2


@<TRIPOS>ATOM
      1 NAA          7.3180    -1.2730     0.0520 nv         1 IW4      -1.074000
      2 BRAC        -3.4340     2.4520    -0.0450 br         1 IW4      -0.102100
      3 BRAD        -2.0610    -3.0830     0.1800 br         1 IW4      -0.102100
      4 CAE          2.6300     0.0040     0.0510 ce         1 IW4      -0.153200
      5 CAF          1.5620     0.8150     0.0610 cf         1 IW4      -0.144200
      6 CAG          5.7830     2.0700     0.0690 ca         1 IW4      -0.073000
      7 CAH          6.7510     1.0770     0.0430 ca         1 IW4      -0.173000
      8 CAI          4.4330     1.7630     0.0750 ca         1 IW4      -0.142000
      9 CAJ          5.0080    -0.5740     0.0270 ca         1 IW4      -0.168000
     10 CAK         -0.8290     1.3840     0.0150 ca         1 IW4      -0.016000
     11 CAL         -0.2540    -0.9270     0.1060 ca         1 IW4      -0.016000
     12 CAM          6.3730    -0.2690     0.0240 ca         1 IW4       0.290000
     13 CAN         -2.1690     1.0480     0.0040 ca         1 IW4      -0.102400
     14 CAO         -1.5940    -1.2510     0.0960 ca         1 IW4      -0.102400
     15 CAP         -2.6190    -0.2840     0.0370 ca         1 IW4       0.370000
     16 CAQ          4.0320     0.4220     0.0520 ca         1 IW4      -0.014800
     17 CAR          0.1620     0.4050     0.0600 ca         1 IW4      -0.103800
     18 HNAA         7.0190    -2.1650    -0.3070 hn         1 IW4       0.447000
     19 HNAB         8.2320    -1.0220    -0.2870 hn         1 IW4       0.447000
     20 HNAC        -4.6030     0.0700    -0.2570 hn         1 IW4       0.478000
     21 HNAD        -4.2000    -1.5500    -0.1870 hn         1 IW4       0.478000
     22 HAE          2.4810    -1.0710     0.0400 ha         1 IW4       0.170000
     23 HAF          1.7110     1.8900     0.0650 ha         1 IW4       0.174000
     24 HAG          6.0930     3.1080     0.0830 ha         1 IW4       0.110000
     25 HAH          7.8020     1.3420     0.0370 ha         1 IW4       0.112000
     26 HAI          3.7040     2.5620     0.0960 ha         1 IW4       0.113000
     27 HAJ          4.7000    -1.6140     0.0090 ha         1 IW4       0.110000
     28 HAK         -0.5390     2.4260    -0.0150 ha         1 IW4       0.129500
     29 HAL          0.4790    -1.7220     0.1500 ha         1 IW4       0.129500
     30 NAB         -3.9400    -0.6130     0.0710 nv         1 IW4      -1.071000
@<TRIPOS>BOND
     1     1    12 1   
     2     1    18 1   
     3     1    19 1   
     4     2    13 1   
     5     3    14 1   
     6     4     5 2   
     7     4    16 1   
     8     4    22 1   
     9     5    17 1   
    10     5    23 1   
    11     6     7 ar  
    12     6     8 ar  
    13     6    24 1   
    14     7    12 ar  
    15     7    25 1   
    16     8    16 ar  
    17     8    26 1   
    18     9    12 ar  
    19     9    16 ar  
    20     9    27 1   
    21    10    13 ar  
    22    10    17 ar  
    23    10    28 1   
    24    11    14 ar  
    25    11    17 ar  
    26    11    29 1   
    27    13    15 ar  
    28    14    15 ar  
    29    15    30 1   
    30    20    30 1   
    31    21    30 1   
@<TRIPOS>SUBSTRUCTURE
     1 IW4         1 TEMP              0 ****  ****    0 ROOT
