@<TRIPOS>MOLECULE
IW5
   30    31     1     0     0
SMALL
abcg2


@<TRIPOS>ATOM
      1 NAA          8.1730     0.6250     0.1420 nv         1 IW5      -1.077000
      2 BRAC        -3.2580     2.6230     0.0140 br         1 IW5      -0.103600
      3 BRAD        -2.3440    -3.0060    -0.1650 br         1 IW5      -0.103600
      4 CAE          2.5870    -0.3180     0.0160 ce         1 IW5      -0.133200
      5 CAF          1.5900     0.5790    -0.0020 cf         1 IW5      -0.163200
      6 CAG          6.2920    -0.8910     0.1040 ca         1 IW5      -0.184000
      7 CAH          5.9150     1.4780     0.0210 ca         1 IW5      -0.184000
      8 CAI          4.9240    -1.0960     0.0850 ca         1 IW5      -0.053000
      9 CAJ          4.5530     1.2590     0.0020 ca         1 IW5      -0.053000
     10 CAK         -0.7490     1.3430     0.0020 ca         1 IW5      -0.021500
     11 CAL         -0.3660    -1.0070    -0.0700 ca         1 IW5      -0.021500
     12 CAM          6.8190     0.4050     0.0730 ca         1 IW5       0.304000
     13 CAN         -2.1120     1.1170    -0.0090 ca         1 IW5      -0.097900
     14 CAO         -1.7290    -1.2180    -0.0820 ca         1 IW5      -0.097900
     15 CAP         -2.6720    -0.1710    -0.0430 ca         1 IW5       0.362000
     16 CAQ          4.0150    -0.0340     0.0350 ca         1 IW5      -0.105800
     17 CAR          0.1610     0.2860    -0.0230 ca         1 IW5      -0.094800
     18 HNAA         8.7640    -0.1390    -0.1440 hn         1 IW5       0.452500
     19 HNAB         8.5000     1.5120    -0.2060 hn         1 IW5       0.452500
     20 HNAC        -4.6210     0.3450     0.2340 hn         1 IW5       0.474000
     21 HNAD        -4.3510    -1.2990     0.1840 hn         1 IW5       0.474000
     22 HAE          2.3420    -1.3770     0.0200 ha         1 IW5       0.167000
     23 HAF          1.8280     1.6380     0.0020 ha         1 IW5       0.172000
     24 HAG          6.9620    -1.7420     0.1440 ha         1 IW5       0.112000
     25 HAH          6.2930     2.4940    -0.0090 ha         1 IW5       0.112000
     26 HAI          4.5500    -2.1130     0.1090 ha         1 IW5       0.109500
     27 HAJ          3.8980     2.1210    -0.0440 ha         1 IW5       0.109500
     28 HAK         -0.3760     2.3590     0.0320 ha         1 IW5       0.129500
     29 HAL          0.2980    -1.8610    -0.1010 ha         1 IW5       0.129500
     30 NAB         -4.0180    -0.3910    -0.0950 nv         1 IW5      -1.067000
@<TRIPOS>BOND
     1     1    12 1   
     2     1    18 1   
     3     1    19 1   
     4     2    13 1   
     5     3    14 1   
     6     4     5 2   
     7     4    16 1   
     8     4    22 1   
     9     5    17 1   
    10     5    23 1   
    11     6     8 ar  
    12     6    12 ar  
    13     6    24 1   
    14     7     9 ar  
    15     7    12 ar  
    16     7    25 1   
    17     8    16 ar  
    18     8    26 1   
    19     9    16 ar  
    20     9    27 1   
    21    10    13 ar  
    22    10    17 ar  
    23    10    28 1   
    24    11    14 ar  
    25    11    17 ar  
    26    11    29 1   
    27    13    15 ar  
    28    14    15 ar  
    29    15    30 1   
    30    20    30 1   
    31    21    30 1   
@<TRIPOS>SUBSTRUCTURE
     1 IW5         1 TEMP              0 ****  ****    0 ROOT
