@<TRIPOS>MOLECULE
IW5
   30    31     1     0     0
SMALL
No Charge or Current Charge


@<TRIPOS>ATOM
      1 NAA          8.2100     0.6380     0.0710 nv         1 IW5      -1.077000
      2 BrAC        -3.3520     2.6750     0.1040 br         1 IW5      -0.103600
      3 BrAD        -2.4420    -3.0620    -0.1780 br         1 IW5      -0.103600
      4 CAE          2.6060    -0.3280    -0.0140 ce         1 IW5      -0.133200
      5 CAF          1.5600     0.5490     0.0180 cf         1 IW5      -0.163200
      6 CAG          6.3650    -0.8920     0.1260 ca         1 IW5      -0.184000
      7 CAH          5.9730     1.4920    -0.0480 ca         1 IW5      -0.184000
      8 CAI          4.9780    -1.1240     0.1040 ca         1 IW5      -0.053000
      9 CAJ          4.5840     1.2680    -0.0700 ca         1 IW5      -0.053000
     10 CAK         -0.7940     1.3650     0.0480 ca         1 IW5      -0.021500
     11 CAL         -0.4130    -1.0300    -0.0690 ca         1 IW5      -0.021500
     12 CAM          6.8620     0.4150     0.0510 ca         1 IW5       0.304000
     13 CAN         -2.1830     1.1490     0.0310 ca         1 IW5      -0.097900
     14 CAO         -1.8020    -1.2510    -0.0870 ca         1 IW5      -0.097900
     15 CAP         -2.6960    -0.1620    -0.0380 ca         1 IW5       0.362000
     16 CAQ          4.0740    -0.0470     0.0080 ca         1 IW5      -0.105800
     17 CAR          0.1060     0.2810    -0.0020 ca         1 IW5      -0.094800
     18 HNAA         8.8530    -0.1480    -0.0120 hn         1 IW5       0.452500
     19 HNAB         8.5740     1.5660    -0.1370 hn         1 IW5       0.452500
     20 HNAC        -4.6770     0.3960     0.1720 hn         1 IW5       0.474000
     21 HNAD        -4.4080    -1.3210     0.0870 hn         1 IW5       0.474000
     22 HAE          2.3770    -1.3920    -0.0570 ha         1 IW5       0.167000
     23 HAF          1.8020     1.6100     0.0710 ha         1 IW5       0.172000
     24 HAG          7.0480    -1.7330     0.2030 ha         1 IW5       0.112000
     25 HAH          6.3520     2.5090    -0.1080 ha         1 IW5       0.112000
     26 HAI          4.6090    -2.1450     0.1640 ha         1 IW5       0.109500
     27 HAJ          3.9190     2.1220    -0.1520 ha         1 IW5       0.109500
     28 HAK         -0.4160     2.3840     0.1010 ha         1 IW5       0.129500
     29 HAL          0.2500    -1.8890    -0.1090 ha         1 IW5       0.129500
     30 NAB         -4.0530    -0.3760    -0.0540 nv         1 IW5      -1.067000
@<TRIPOS>BOND
     1     1    12 1   
     2     1    18 1   
     3     1    19 1   
     4     2    13 1   
     5     3    14 1   
     6     4     5 2   
     7     4    16 1   
     8     4    22 1   
     9     5    17 1   
    10     5    23 1   
    11     6     8 ar  
    12     6    12 ar  
    13     6    24 1   
    14     7     9 ar  
    15     7    12 ar  
    16     7    25 1   
    17     8    16 ar  
    18     8    26 1   
    19     9    16 ar  
    20     9    27 1   
    21    10    13 ar  
    22    10    17 ar  
    23    10    28 1   
    24    11    14 ar  
    25    11    17 ar  
    26    11    29 1   
    27    13    15 ar  
    28    14    15 ar  
    29    15    30 1   
    30    20    30 1   
    31    21    30 1   
@<TRIPOS>SUBSTRUCTURE
     1 IW5         1 TEMP              0 ****  ****    0 ROOT
