@<TRIPOS>MOLECULE
IW6
   36    37     1     0     0
SMALL
No Charge or Current Charge


@<TRIPOS>ATOM
      1 CAA         -4.9640     2.8470     1.9850 c3         1 IW6       0.149400
      2 CAB         -3.8500    -3.2830    -2.0040 c3         1 IW6       0.149400
      3 NAC          4.3680     0.4860     0.0670 nv         1 IW6      -1.069000
      4 BrAD         3.7760    -2.5920    -0.0290 br         1 IW6      -0.107600
      5 BrAE         2.6630     3.1150     0.1470 br         1 IW6      -0.107600
      6 CAF         -1.2220    -0.6450     0.0410 ce         1 IW6      -0.154200
      7 CAH         -6.5350    -0.6480     0.0520 ca         1 IW6      -0.030000
      8 CAI         -6.0350     0.4970     0.6810 ca         1 IW6      -0.238500
      9 CAJ         -5.6600    -1.5250    -0.5990 ca         1 IW6      -0.238500
     10 CAK          1.1730    -1.3730     0.0150 ca         1 IW6      -0.022000
     11 CAL          0.7070     1.0100     0.0880 ca         1 IW6      -0.022000
     12 OAM         -4.1360     1.8910     1.2990 os         1 IW6      -0.339100
     13 CAO          0.2360    -0.3200     0.0480 ca         1 IW6      -0.091800
     14 CAP          3.0190     0.2230     0.0610 ca         1 IW6       0.360000
     15 CAQ          2.5530    -1.1070     0.0210 ca         1 IW6      -0.098900
     16 CAR          2.0870     1.2800     0.0940 ca         1 IW6      -0.098900
     17 CAS         -3.7520    -0.1190     0.0290 ca         1 IW6      -0.121800
     18 CAT         -4.6500     0.7700     0.6710 ca         1 IW6       0.184600
     19 CAU         -4.2710    -1.2700    -0.6210 ca         1 IW6       0.184600
     20 HAA         -4.3470     3.6520     2.4040 h1         1 IW6       0.042367
     21 HAAA        -5.6900     3.2990     1.2980 h1         1 IW6       0.042367
     22 HAAB        -5.5070     2.3710     2.8110 h1         1 IW6       0.042367
     23 HAB         -4.5620    -3.0220    -2.7980 h1         1 IW6       0.042367
     24 HABA        -2.9960    -3.7920    -2.4680 h1         1 IW6       0.042367
     25 HABB        -4.3320    -3.9890    -1.3150 h1         1 IW6       0.042367
     26 HNAC         5.0180    -0.2680    -0.1470 hn         1 IW6       0.474000
     27 HNAA         4.6880     1.4390    -0.0940 hn         1 IW6       0.474000
     28 HAF         -1.4250    -1.7150     0.0560 ha         1 IW6       0.184000
     29 HAG         -2.0910     1.2660     0.0540 ha         1 IW6       0.177000
     30 HAH         -7.6050    -0.8530     0.0630 ha         1 IW6       0.111000
     31 HAI         -6.7390     1.1610     1.1740 ha         1 IW6       0.120000
     32 HAJ         -6.0830    -2.3970    -1.0880 ha         1 IW6       0.120000
     33 HAK          0.8310    -2.4050    -0.0170 ha         1 IW6       0.130500
     34 HAL          0.0130     1.8440     0.1150 ha         1 IW6       0.130500
     35 CAG         -2.2980     0.1960     0.0420 cf         1 IW6      -0.124200
     36 OAN         -3.4080    -2.1060    -1.3050 os         1 IW6      -0.339100
@<TRIPOS>BOND
     1     1    12 1   
     2     1    20 1   
     3     1    21 1   
     4     1    22 1   
     5     2    23 1   
     6     2    24 1   
     7     2    25 1   
     8     2    36 1   
     9     3    14 1   
    10     3    26 1   
    11     3    27 1   
    12     4    15 1   
    13     5    16 1   
    14     6    13 1   
    15     6    28 1   
    16     6    35 2   
    17     7     8 ar  
    18     7     9 ar  
    19     7    30 1   
    20     8    18 ar  
    21     8    31 1   
    22     9    19 ar  
    23     9    32 1   
    24    10    13 ar  
    25    10    15 ar  
    26    10    33 1   
    27    11    13 ar  
    28    11    16 ar  
    29    11    34 1   
    30    12    18 1   
    31    14    15 ar  
    32    14    16 ar  
    33    17    18 ar  
    34    17    19 ar  
    35    17    35 1   
    36    19    36 1   
    37    29    35 1   
@<TRIPOS>SUBSTRUCTURE
     1 IW6         1 TEMP              0 ****  ****    0 ROOT
