@<TRIPOS>MOLECULE
IW6
   36    37     1     0     0
SMALL
abcg2


@<TRIPOS>ATOM
      1 CAA         -4.8290     2.7440     1.9130 c3         1 IW6       0.149400
      2 CAB         -3.9040    -3.2290    -1.9350 c3         1 IW6       0.149400
      3 NAC          4.3030     0.5700     0.1300 nv         1 IW6      -1.069000
      4 BRAD         3.7180    -2.4830     0.0150 br         1 IW6      -0.107600
      5 BRAE         2.4820     3.0860     0.1900 br         1 IW6      -0.107600
      6 CAF         -1.2380    -0.7290     0.0180 ce         1 IW6      -0.154200
      7 CAH         -6.4780    -0.5830     0.0040 ca         1 IW6      -0.030000
      8 CAI         -5.9690     0.5250     0.6610 ca         1 IW6      -0.238500
      9 CAJ         -5.6460    -1.4940    -0.6250 ca         1 IW6      -0.238500
     10 CAK          1.1410    -1.3480     0.0190 ca         1 IW6      -0.022000
     11 CAL          0.6230     0.9750     0.0900 ca         1 IW6      -0.022000
     12 OAM         -4.0110     1.7600     1.3120 os         1 IW6      -0.339100
     13 CAO          0.1720    -0.3450     0.0440 ca         1 IW6      -0.091800
     14 CAP          2.9740     0.2730     0.0730 ca         1 IW6       0.360000
     15 CAQ          2.4890    -1.0460     0.0350 ca         1 IW6      -0.098900
     16 CAR          1.9710     1.2650     0.1080 ca         1 IW6      -0.098900
     17 CAS         -3.7060    -0.1850     0.0630 ca         1 IW6      -0.121800
     18 CAT         -4.5910     0.7190     0.6880 ca         1 IW6       0.184600
     19 CAU         -4.2670    -1.2960    -0.5970 ca         1 IW6       0.184600
     20 HAA         -4.1560     3.4950     2.3200 h1         1 IW6       0.042367
     21 HAAA        -5.4950     3.2200     1.1900 h1         1 IW6       0.042367
     22 HAAB        -5.4300     2.3320     2.7280 h1         1 IW6       0.042367
     23 HAB         -4.5430    -2.9130    -2.7630 h1         1 IW6       0.042367
     24 HABA        -3.0370    -3.7450    -2.3390 h1         1 IW6       0.042367
     25 HABB        -4.4610    -3.9230    -1.3020 h1         1 IW6       0.042367
     26 HNAC         4.9500    -0.1300    -0.1970 hn         1 IW6       0.474000
     27 HNAA         4.5860     1.4980    -0.1360 hn         1 IW6       0.474000
     28 HAF         -1.4060    -1.7960    -0.0460 ha         1 IW6       0.184000
     29 HAG         -2.0540     1.1750     0.1960 ha         1 IW6       0.177000
     30 HAH         -7.5480    -0.7420    -0.0180 ha         1 IW6       0.111000
     31 HAI         -6.6460     1.2130     1.1460 ha         1 IW6       0.120000
     32 HAJ         -6.0810    -2.3450    -1.1290 ha         1 IW6       0.120000
     33 HAK          0.8260    -2.3830    -0.0160 ha         1 IW6       0.130500
     34 HAL         -0.0870     1.7910     0.1080 ha         1 IW6       0.130500
     35 CAG         -2.2750     0.1200     0.0870 cf         1 IW6      -0.124200
     36 OAN         -3.4040    -2.1280    -1.2030 os         1 IW6      -0.339100
@<TRIPOS>BOND
     1     1    12 1   
     2     1    20 1   
     3     1    21 1   
     4     1    22 1   
     5     2    23 1   
     6     2    24 1   
     7     2    25 1   
     8     2    36 1   
     9     3    14 1   
    10     3    26 1   
    11     3    27 1   
    12     4    15 1   
    13     5    16 1   
    14     6    13 1   
    15     6    28 1   
    16     6    35 2   
    17     7     8 ar  
    18     7     9 ar  
    19     7    30 1   
    20     8    18 ar  
    21     8    31 1   
    22     9    19 ar  
    23     9    32 1   
    24    10    13 ar  
    25    10    15 ar  
    26    10    33 1   
    27    11    13 ar  
    28    11    16 ar  
    29    11    34 1   
    30    12    18 1   
    31    14    15 ar  
    32    14    16 ar  
    33    17    18 ar  
    34    17    19 ar  
    35    17    35 1   
    36    19    36 1   
    37    29    35 1   
@<TRIPOS>SUBSTRUCTURE
     1 IW6         1 TEMP              0 ****  ****    0 ROOT
