@<TRIPOS>MOLECULE
IW7
   39    39     1     0     0
SMALL
abcg2


@<TRIPOS>ATOM
      1 O5          -3.6400     2.4820    -1.3210 o          1 IW7      -0.563000
      2 S1          -3.4280     1.7780    -0.0660 sy         1 IW7       1.125600
      3 O6          -2.9110     2.5280     1.0710 o          1 IW7      -0.563000
      4 N7          -4.8430     0.9960     0.2600 n8         1 IW7      -1.005100
      5 C7          -2.3410     0.4070    -0.3380 ca         1 IW7      -0.308500
      6 C8          -2.5010    -0.3690    -1.4770 ca         1 IW7       0.012000
      7 C9          -1.6480    -1.4360    -1.6890 ca         1 IW7      -0.133000
      8 C10         -0.6130    -1.7310    -0.8030 ca         1 IW7       0.011400
      9 C17          0.3080    -2.8980    -1.1640 c          1 IW7       0.721600
     10 O18          1.5340    -2.6610    -1.1640 o          1 IW7      -0.690000
     11 O17         -0.2620    -3.9470    -1.4760 o          1 IW7      -0.690000
     12 C12         -1.3420     0.1330     0.5790 ca         1 IW7       0.051000
     13 C11         -0.4850    -0.9310     0.3340 ca         1 IW7      -0.304500
     14 S13          0.7700    -1.2660     1.5600 sy         1 IW7       1.139600
     15 O15          0.5520    -0.3490     2.6700 o          1 IW7      -0.554000
     16 O14          0.7600    -2.6960     1.8180 o          1 IW7      -0.554000
     17 N16          2.2140    -0.9000     0.8770 n7         1 IW7      -0.857300
     18 C19          2.4930     0.5010     0.5580 c3         1 IW7       0.200800
     19 C20          3.9300     0.6250     0.0790 c3         1 IW7      -0.078400
     20 C21          4.2960     2.0570    -0.2880 c3         1 IW7      -0.077400
     21 C29          5.7430     2.1950    -0.7430 c3         1 IW7      -0.075400
     22 C30          6.1120     3.6230    -1.1170 c3         1 IW7      -0.087100
     23 H7A         -4.8590     0.5810     1.1860 hn         1 IW7       0.465500
     24 H7B         -5.6450     1.6060     0.1310 hn         1 IW7       0.465500
     25 H8          -3.2870    -0.1600    -2.1910 ha         1 IW7       0.115000
     26 H12         -1.2340     0.7360     1.4700 ha         1 IW7       0.149000
     27 H9          -1.7810    -2.0510    -2.5690 ha         1 IW7       0.130000
     28 H16          2.3060    -1.5160     0.0570 hn         1 IW7       0.536000
     29 H191         1.8120     0.8860    -0.2120 h1         1 IW7       0.043200
     30 H192         2.3510     1.1070     1.4530 h1         1 IW7       0.043200
     31 H201         4.6000     0.2580     0.8620 hc         1 IW7       0.052200
     32 H202         4.0810    -0.0230    -0.7910 hc         1 IW7       0.052200
     33 H211         3.6300     2.4150    -1.0800 hc         1 IW7       0.035700
     34 H212         4.1230     2.7110     0.5730 hc         1 IW7       0.035700
     35 H291         6.4060     1.8410     0.0530 hc         1 IW7       0.037200
     36 H292         5.9180     1.5340    -1.5970 hc         1 IW7       0.037200
     37 H301         7.1500     3.6960    -1.4430 hc         1 IW7       0.026367
     38 H302         5.4840     3.9920    -1.9310 hc         1 IW7       0.026367
     39 H303         5.9830     4.3000    -0.2710 hc         1 IW7       0.026367
@<TRIPOS>BOND
     1     1     2 2   
     2     2     3 2   
     3     2     4 1   
     4     2     5 1   
     5     4    23 1   
     6     4    24 1   
     7     5     6 ar  
     8     5    12 ar  
     9     6     7 ar  
    10     6    25 1   
    11     7     8 ar  
    12     7    27 1   
    13     8     9 1   
    14     8    13 ar  
    15     9    10 1   
    16     9    11 1   
    17    12    13 ar  
    18    12    26 1   
    19    13    14 1   
    20    14    15 2   
    21    14    16 2   
    22    14    17 1   
    23    17    18 1   
    24    17    28 1   
    25    18    19 1   
    26    18    29 1   
    27    18    30 1   
    28    19    20 1   
    29    19    31 1   
    30    19    32 1   
    31    20    21 1   
    32    20    33 1   
    33    20    34 1   
    34    21    22 1   
    35    21    35 1   
    36    21    36 1   
    37    22    37 1   
    38    22    38 1   
    39    22    39 1   
@<TRIPOS>SUBSTRUCTURE
     1 IW7         1 TEMP              0 ****  ****    0 ROOT
