@<TRIPOS>MOLECULE
IW7
   39    39     1     0     0
SMALL
No Charge or Current Charge


@<TRIPOS>ATOM
      1 O5          -3.7780     2.4250    -1.3160 o          1 IW7      -0.563000
      2 S1          -3.2850     1.8530    -0.0660 sy         1 IW7       1.125600
      3 O6          -2.8110     2.6820     1.0390 o          1 IW7      -0.563000
      4 N7          -4.5940     1.1080     0.5530 n8         1 IW7      -1.005100
      5 C7          -2.1590     0.4950    -0.3770 ca         1 IW7      -0.308500
      6 C8          -2.1660    -0.1560    -1.6230 ca         1 IW7       0.012000
      7 C9          -1.2790    -1.2160    -1.8630 ca         1 IW7      -0.133000
      8 C10         -0.3720    -1.6500    -0.8730 ca         1 IW7       0.011400
      9 C17          0.5870    -2.7810    -1.2260 c          1 IW7       0.721600
     10 O18          1.7880    -2.5760    -1.0990 o          1 IW7      -0.690000
     11 O17          0.1240    -3.8030    -1.7140 o          1 IW7      -0.690000
     12 C12         -1.2720     0.0730     0.6310 ca         1 IW7       0.051000
     13 C11         -0.3800    -0.9950     0.3950 ca         1 IW7      -0.304500
     14 S13          0.7010    -1.5150     1.7420 sy         1 IW7       1.139600
     15 O15          0.4620    -0.7100     2.9430 o          1 IW7      -0.554000
     16 O14          0.7520    -2.9760     1.8020 o          1 IW7      -0.554000
     17 N16          2.2000    -1.0680     1.1780 n7         1 IW7      -0.857300
     18 C19          2.3770     0.3230     0.7470 c3         1 IW7       0.200800
     19 C20          3.7990     0.5160     0.1870 c3         1 IW7      -0.078400
     20 C21          4.0680     1.9620    -0.2870 c3         1 IW7      -0.077400
     21 C29          5.4930     2.1590    -0.8500 c3         1 IW7      -0.075400
     22 C30          5.7600     3.6000    -1.3240 c3         1 IW7      -0.087100
     23 H7A         -4.7450     1.6690     1.3880 hn         1 IW7       0.465500
     24 H7B         -5.3140     1.4570    -0.0740 hn         1 IW7       0.465500
     25 H8          -2.8510     0.1560    -2.4090 ha         1 IW7       0.115000
     26 H12         -1.2840     0.5750     1.5980 ha         1 IW7       0.149000
     27 H9          -1.2880    -1.7030    -2.8350 ha         1 IW7       0.130000
     28 H16          2.2190    -1.6580     0.3340 hn         1 IW7       0.536000
     29 H191         1.6540     0.5950    -0.0340 h1         1 IW7       0.043200
     30 H192         2.2320     1.0090     1.5930 h1         1 IW7       0.043200
     31 H201         4.5290     0.2490     0.9620 hc         1 IW7       0.052200
     32 H202         3.9530    -0.1730    -0.6530 hc         1 IW7       0.052200
     33 H211         3.3360     2.2290    -1.0600 hc         1 IW7       0.035700
     34 H212         3.9140     2.6510     0.5520 hc         1 IW7       0.035700
     35 H291         6.2280     1.8940    -0.0800 hc         1 IW7       0.037200
     36 H292         5.6500     1.4730    -1.6920 hc         1 IW7       0.037200
     37 H301         6.7810     3.6910    -1.7140 hc         1 IW7       0.026367
     38 H302         5.0620     3.8830    -2.1210 hc         1 IW7       0.026367
     39 H303         5.6460     4.3090    -0.4940 hc         1 IW7       0.026367
@<TRIPOS>BOND
     1     1     2 2   
     2     2     3 2   
     3     2     4 1   
     4     2     5 1   
     5     4    23 1   
     6     4    24 1   
     7     5     6 ar  
     8     5    12 ar  
     9     6     7 ar  
    10     6    25 1   
    11     7     8 ar  
    12     7    27 1   
    13     8     9 1   
    14     8    13 ar  
    15     9    10 1   
    16     9    11 1   
    17    12    13 ar  
    18    12    26 1   
    19    13    14 1   
    20    14    15 2   
    21    14    16 2   
    22    14    17 1   
    23    17    18 1   
    24    17    28 1   
    25    18    19 1   
    26    18    29 1   
    27    18    30 1   
    28    19    20 1   
    29    19    31 1   
    30    19    32 1   
    31    20    21 1   
    32    20    33 1   
    33    20    34 1   
    34    21    22 1   
    35    21    35 1   
    36    21    36 1   
    37    22    37 1   
    38    22    38 1   
    39    22    39 1   
@<TRIPOS>SUBSTRUCTURE
     1 IW7         1 TEMP              0 ****  ****    0 ROOT
