@<TRIPOS>MOLECULE
IW8
   62    65     1     0     0
SMALL
bcc


@<TRIPOS>ATOM
      1 C01          3.0630    -0.2660     0.3290 ca         1 IW8      -0.235500
      2 C02          2.7940     0.2550     1.6070 ca         1 IW8       0.051100
      3 C03          3.4640     1.3720     2.0620 ca         1 IW8      -0.083000
      4 C04          4.4100     1.9730     1.2350 ca         1 IW8      -0.053800
      5 C05          4.6720     1.4440    -0.0400 ca         1 IW8      -0.007400
      6 C06          4.0050     0.3220    -0.5040 ca         1 IW8      -0.021000
      7 C07          5.2510     3.1180     1.4090 cc         1 IW8      -0.169200
      8 C08          5.9730     3.2490     0.2750 cd         1 IW8      -0.058400
      9 N01          5.6450     2.2460    -0.6270 n          1 IW8      -0.255200
     10 BR           1.5210    -0.5100     2.7640 br         1 IW8      -0.064100
     11 S            2.2470    -1.7190    -0.2980 sy         1 IW8       1.305200
     12 N02          0.6800    -1.2220    -0.3490 n3         1 IW8      -0.756500
     13 O01          2.7750    -1.9590    -1.6360 o          1 IW8      -0.608800
     14 O02          2.3530    -2.7960     0.6710 o          1 IW8      -0.608800
     15 C09          6.1990     2.0810    -1.8960 c          1 IW8       0.686100
     16 O03          5.8420     1.1690    -2.6020 o          1 IW8      -0.522100
     17 C10          7.2350     3.0870    -2.3020 c3         1 IW8      -0.179100
     18 C11          0.3480    -0.2580    -1.3970 c6         1 IW8       0.209800
     19 C12         -0.8960     0.5160    -0.9960 c6         1 IW8      -0.069900
     20 C13         -2.0580    -0.4330    -0.7290 c6         1 IW8      -0.131700
     21 C14         -1.6450    -1.4540     0.3370 c6         1 IW8      -0.069900
     22 C15         -0.3740    -2.1890    -0.0550 c6         1 IW8       0.209800
     23 C16         -3.2960     0.3270    -0.2770 c          1 IW8       0.678100
     24 N           -4.4990    -0.3020    -0.3360 n          1 IW8      -0.413000
     25 O           -3.2080     1.4640     0.1600 o          1 IW8      -0.583100
     26 C17         -5.6370     0.4080     0.1440 ca         1 IW8       0.047600
     27 C18         -4.7680    -1.6250    -0.8920 c3         1 IW8       0.114000
     28 C19         -5.2940    -2.6100     0.1390 c3         1 IW8      -0.113100
     29 C20         -6.5110     0.9930    -0.7630 ca         1 IW8      -0.127000
     30 C21         -7.6500     1.6650    -0.3300 ca         1 IW8      -0.070300
     31 C22         -7.8890     1.7460     1.0410 ca         1 IW8      -0.128000
     32 C23         -7.0170     1.1650     1.9500 ca         1 IW8      -0.121000
     33 C24         -5.8880     0.4900     1.5060 ca         1 IW8      -0.117000
     34 C           -8.6060     2.2750    -1.3130 c3         1 IW8      -0.046800
     35 H1           3.2640     1.7800     3.0430 ha         1 IW8       0.154000
     36 H2           4.1970    -0.0900    -1.4810 ha         1 IW8       0.192000
     37 H3           5.3040     3.7590     2.2740 ha         1 IW8       0.166000
     38 H4           6.7110     3.9950     0.0320 h4         1 IW8       0.169000
     39 H5           8.0900     3.0710    -1.6250 hc         1 IW8       0.073367
     40 H6           7.5820     2.8540    -3.3040 hc         1 IW8       0.073367
     41 H7           6.8270     4.0980    -2.3000 hc         1 IW8       0.073367
     42 H8           1.1720     0.4450    -1.5250 h1         1 IW8       0.053950
     43 H9           0.1980    -0.7650    -2.3570 h1         1 IW8       0.053950
     44 H10         -0.6760     1.1100    -0.1070 hc         1 IW8       0.062950
     45 H11         -1.1390     1.2110    -1.8010 hc         1 IW8       0.062950
     46 H12         -2.2680    -0.9680    -1.6610 hc         1 IW8       0.057700
     47 H13         -1.4910    -0.9430     1.2910 hc         1 IW8       0.062950
     48 H14         -2.4220    -2.2040     0.4940 hc         1 IW8       0.062950
     49 H15         -0.5660    -2.8330    -0.9230 h1         1 IW8       0.053950
     50 H16         -0.0640    -2.8280     0.7680 h1         1 IW8       0.053950
     51 H17         -5.4920    -1.5190    -1.7040 h1         1 IW8       0.046200
     52 H18         -3.8610    -2.0150    -1.3450 h1         1 IW8       0.046200
     53 H19         -5.4250    -3.5870    -0.3260 hc         1 IW8       0.044367
     54 H20         -4.6010    -2.7210     0.9740 hc         1 IW8       0.044367
     55 H21         -6.2580    -2.3000     0.5410 hc         1 IW8       0.044367
     56 H22         -6.2950     0.9250    -1.8240 ha         1 IW8       0.133000
     57 H23         -8.7670     2.2680     1.4010 ha         1 IW8       0.129000
     58 H24         -7.2180     1.2360     3.0110 ha         1 IW8       0.132000
     59 H25         -5.2080     0.0280     2.2110 ha         1 IW8       0.139000
     60 H26         -9.4800     1.6360    -1.4540 hc         1 IW8       0.042367
     61 H27         -8.9680     3.2440    -0.9700 hc         1 IW8       0.042367
     62 H28         -8.1430     2.4140    -2.2890 hc         1 IW8       0.042367
@<TRIPOS>BOND
     1     1     2 ar  
     2     1     6 ar  
     3     1    11 1   
     4     2     3 ar  
     5     2    10 1   
     6     3     4 ar  
     7     3    35 1   
     8     4     5 ar  
     9     4     7 1   
    10     5     6 ar  
    11     5     9 1   
    12     6    36 1   
    13     7     8 2   
    14     7    37 1   
    15     8     9 1   
    16     8    38 1   
    17     9    15 1   
    18    11    12 1   
    19    11    13 2   
    20    11    14 2   
    21    12    18 1   
    22    12    22 1   
    23    15    16 2   
    24    15    17 1   
    25    17    39 1   
    26    17    40 1   
    27    17    41 1   
    28    18    19 1   
    29    18    42 1   
    30    18    43 1   
    31    19    20 1   
    32    19    44 1   
    33    19    45 1   
    34    20    21 1   
    35    20    23 1   
    36    20    46 1   
    37    21    22 1   
    38    21    47 1   
    39    21    48 1   
    40    22    49 1   
    41    22    50 1   
    42    23    24 1   
    43    23    25 2   
    44    24    26 1   
    45    24    27 1   
    46    26    29 ar  
    47    26    33 ar  
    48    27    28 1   
    49    27    51 1   
    50    27    52 1   
    51    28    53 1   
    52    28    54 1   
    53    28    55 1   
    54    29    30 ar  
    55    29    56 1   
    56    30    31 ar  
    57    30    34 1   
    58    31    32 ar  
    59    31    57 1   
    60    32    33 ar  
    61    32    58 1   
    62    33    59 1   
    63    34    60 1   
    64    34    61 1   
    65    34    62 1   
@<TRIPOS>SUBSTRUCTURE
     1 IW8         1 TEMP              0 ****  ****    0 ROOT
