@<TRIPOS>MOLECULE
IW8
   62    65     1     0     0
SMALL
No Charge or Current Charge


@<TRIPOS>ATOM
      1 C01          3.3440    -0.1220     0.6860 ca         1 IW8      -0.235500
      2 C02          3.2970     0.6250     1.9000 ca         1 IW8       0.051100
      3 C03          4.0970     1.7760     2.0550 ca         1 IW8      -0.065000
      4 C04          4.9270     2.1610     0.9980 ca         1 IW8      -0.053800
      5 C05          4.9820     1.4530    -0.1840 ca         1 IW8      -0.100000
      6 C06          4.1950     0.3010    -0.3670 ca         1 IW8      -0.003000
      7 C07          5.8230     3.2800     0.9090 cc         1 IW8      -0.219200
      8 C08          6.3810     3.1810    -0.3510 cd         1 IW8      -0.108400
      9 N01          5.9120     2.0770    -1.0890 n          1 IW8      -0.095600
     10 Br           2.1520     0.1580     3.3740 br         1 IW8      -0.064100
     11 S            2.3320    -1.6000     0.4260 sy         1 IW8       1.163600
     12 N02          0.7380    -1.0110     0.5470 n3         1 IW8      -0.756500
     13 O01          2.5010    -2.0890    -0.9480 o          1 IW8      -0.538000
     14 O02          2.5230    -2.4820     1.5830 o          1 IW8      -0.538000
     15 C09          6.2860     1.6980    -2.4080 c          1 IW8       0.619100
     16 O03          5.8120     0.7110    -2.9590 o          1 IW8      -0.522100
     17 C10          7.3120     2.5600    -3.1460 c3         1 IW8      -0.179100
     18 C11          0.4430     0.1780    -0.2970 c6         1 IW8       0.209800
     19 C12         -0.9320     0.7940     0.0560 c6         1 IW8      -0.069900
     20 C13         -2.0620    -0.2670    -0.0370 c6         1 IW8      -0.131700
     21 C14         -1.7020    -1.5310     0.7900 c6         1 IW8      -0.069900
     22 C15         -0.2990    -2.0640     0.4140 c6         1 IW8       0.209800
     23 C16         -3.4870     0.2670     0.2990 c          1 IW8       0.611100
     24 N           -4.6540    -0.3920    -0.2030 n          1 IW8      -0.253400
     25 O           -3.5920     1.2100     1.0770 o          1 IW8      -0.583100
     26 C17         -5.9730     0.0350     0.2030 ca         1 IW8      -0.045000
     27 C18         -4.5390    -1.2840    -1.3950 c3         1 IW8       0.114000
     28 C19         -5.7710    -2.1600    -1.7190 c3         1 IW8      -0.113100
     29 C20         -6.8070     0.7120    -0.7130 ca         1 IW8      -0.109000
     30 C21         -8.0230     1.2870    -0.2990 ca         1 IW8      -0.070300
     31 C22         -8.3830     1.2410     1.0600 ca         1 IW8      -0.110000
     32 C23         -7.5150     0.6580     1.9960 ca         1 IW8      -0.103000
     33 C24         -6.3020     0.0890     1.5730 ca         1 IW8      -0.099000
     34 C           -8.9320     1.9660    -1.3130 c3         1 IW8      -0.046800
     35 H1           4.0670     2.3540     2.9750 ha         1 IW8       0.136000
     36 H2           4.2380    -0.2550    -1.3000 ha         1 IW8       0.174000
     37 H3           6.0290     4.0450     1.6560 ha         1 IW8       0.216000
     38 H4           7.1120     3.8400    -0.8100 h4         1 IW8       0.219000
     39 H5           8.2210     2.6330    -2.5400 hc         1 IW8       0.073367
     40 H6           7.5290     2.1830    -4.1510 hc         1 IW8       0.073367
     41 H7           6.9550     3.5960    -3.1750 hc         1 IW8       0.073367
     42 H8           1.2000     0.9630    -0.1610 h1         1 IW8       0.053950
     43 H9           0.4540    -0.0970    -1.3620 h1         1 IW8       0.053950
     44 H10         -0.8850     1.2060     1.0730 hc         1 IW8       0.062950
     45 H11         -1.1440     1.6360    -0.6170 hc         1 IW8       0.062950
     46 H12         -2.0880    -0.6210    -1.0740 hc         1 IW8       0.057700
     47 H13         -1.7170    -1.2850     1.8610 hc         1 IW8       0.062950
     48 H14         -2.4480    -2.3230     0.6450 hc         1 IW8       0.062950
     49 H15         -0.3230    -2.4500    -0.6170 h1         1 IW8       0.053950
     50 H16         -0.0720    -2.9170     1.0700 h1         1 IW8       0.053950
     51 H17         -4.2930    -0.6710    -2.2720 h1         1 IW8       0.046200
     52 H18         -3.7130    -1.9860    -1.2340 h1         1 IW8       0.046200
     53 H19         -5.5220    -2.8740    -2.5140 hc         1 IW8       0.044367
     54 H20         -6.0820    -2.7310    -0.8360 hc         1 IW8       0.044367
     55 H21         -6.6200    -1.5640    -2.0690 hc         1 IW8       0.044367
     56 H22         -6.5120     0.7900    -1.7570 ha         1 IW8       0.115000
     57 H23         -9.3190     1.6830     1.3950 ha         1 IW8       0.111000
     58 H24         -7.7750     0.6580     3.0520 ha         1 IW8       0.114000
     59 H25         -5.6260    -0.3360     2.3100 ha         1 IW8       0.121000
     60 H26         -9.5690     1.2310    -1.8180 hc         1 IW8       0.042367
     61 H27         -9.5860     2.7050    -0.8360 hc         1 IW8       0.042367
     62 H28         -8.3500     2.4900    -2.0800 hc         1 IW8       0.042367
@<TRIPOS>BOND
     1     1     2 ar  
     2     1     6 ar  
     3     1    11 1   
     4     2     3 ar  
     5     2    10 1   
     6     3     4 ar  
     7     3    35 1   
     8     4     5 ar  
     9     4     7 1   
    10     5     6 ar  
    11     5     9 1   
    12     6    36 1   
    13     7     8 2   
    14     7    37 1   
    15     8     9 1   
    16     8    38 1   
    17     9    15 1   
    18    11    12 1   
    19    11    13 2   
    20    11    14 2   
    21    12    18 1   
    22    12    22 1   
    23    15    16 2   
    24    15    17 1   
    25    17    39 1   
    26    17    40 1   
    27    17    41 1   
    28    18    19 1   
    29    18    42 1   
    30    18    43 1   
    31    19    20 1   
    32    19    44 1   
    33    19    45 1   
    34    20    21 1   
    35    20    23 1   
    36    20    46 1   
    37    21    22 1   
    38    21    47 1   
    39    21    48 1   
    40    22    49 1   
    41    22    50 1   
    42    23    24 1   
    43    23    25 2   
    44    24    26 1   
    45    24    27 1   
    46    26    29 ar  
    47    26    33 ar  
    48    27    28 1   
    49    27    51 1   
    50    27    52 1   
    51    28    53 1   
    52    28    54 1   
    53    28    55 1   
    54    29    30 ar  
    55    29    56 1   
    56    30    31 ar  
    57    30    34 1   
    58    31    32 ar  
    59    31    57 1   
    60    32    33 ar  
    61    32    58 1   
    62    33    59 1   
    63    34    60 1   
    64    34    61 1   
    65    34    62 1   
@<TRIPOS>SUBSTRUCTURE
     1 IW8         1 TEMP              0 ****  ****    0 ROOT
