@<TRIPOS>MOLECULE
IW9
   32    32     1     0     0
SMALL
No Charge or Current Charge


@<TRIPOS>ATOM
      1 C8          93.0280    -5.1400    15.5160 c3         1 IW9       0.162600
      2 C10         92.7040    -9.8630    12.4210 c3         1 IW9       0.170600
      3 N12         90.0180   -10.6050    16.4800 nv         1 IW9      -1.045900
      4 C13         93.5520    -9.5860    11.1700 c3         1 IW9      -0.098100
      5 C15         92.9570    -4.4910    12.3240 c3         1 IW9      -0.087100
      6 C1          92.1960    -7.4500    15.2380 ca         1 IW9      -0.032900
      7 C2          92.1020    -8.6340    14.4650 ca         1 IW9       0.379300
      8 C3          91.4920    -7.4220    16.4640 ca         1 IW9       0.074900
      9 O4          92.9520    -6.3780    14.7880 os         1 IW9      -0.315100
     10 N5          91.3690    -9.6870    14.8910 nb         1 IW9      -0.313000
     11 O6          92.7750    -8.6950    13.2580 os         1 IW9      -0.444300
     12 N7          90.7640    -8.4780    16.8790 nb         1 IW9      -0.243000
     13 C9          90.7470    -9.5430    16.0660 ca         1 IW9       0.371900
     14 C11         93.9270    -4.1600    14.7280 c3         1 IW9      -0.073400
     15 C14         93.2740    -3.5150    13.4770 c3         1 IW9      -0.065400
     16 H1          92.0320    -4.7010    15.6550 h1         1 IW9       0.029700
     17 H2          93.4720    -5.3140    16.5050 h1         1 IW9       0.029700
     18 H3          93.0980   -10.7450    12.9430 h1         1 IW9       0.048200
     19 H4          91.6670   -10.0680    12.1210 h1         1 IW9       0.048200
     20 H5          90.1430   -11.4960    16.0050 hn         1 IW9       0.481000
     21 H6          89.6980   -10.6370    17.4450 hn         1 IW9       0.481000
     22 H7          93.5280   -10.4510    10.4960 hc         1 IW9       0.047367
     23 H8          93.1670    -8.7150    10.6260 hc         1 IW9       0.047367
     24 H9          94.5960    -9.3940    11.4450 hc         1 IW9       0.047367
     25 H10         92.6270    -3.9360    11.4380 hc         1 IW9       0.036367
     26 H11         93.8450    -5.0730    12.0510 hc         1 IW9       0.036367
     27 H12         92.1550    -5.1840    12.6020 hc         1 IW9       0.036367
     28 H13         91.5040    -6.5590    17.1260 h4         1 IW9       0.025100
     29 H14         94.2150    -3.3510    15.4100 hc         1 IW9       0.048700
     30 H15         94.8570    -4.6650    14.4420 hc         1 IW9       0.048700
     31 H16         92.3530    -2.9970    13.7740 hc         1 IW9       0.034200
     32 H17         93.9540    -2.7430    13.0960 hc         1 IW9       0.034200
@<TRIPOS>BOND
     1     1     9 1   
     2     1    14 1   
     3     1    16 1   
     4     1    17 1   
     5     2     4 1   
     6     2    11 1   
     7     2    18 1   
     8     2    19 1   
     9     3    13 1   
    10     3    20 1   
    11     3    21 1   
    12     4    22 1   
    13     4    23 1   
    14     4    24 1   
    15     5    15 1   
    16     5    25 1   
    17     5    26 1   
    18     5    27 1   
    19     6     7 ar  
    20     6     8 ar  
    21     6     9 1   
    22     7    10 ar  
    23     7    11 1   
    24     8    12 ar  
    25     8    28 1   
    26    10    13 ar  
    27    12    13 ar  
    28    14    15 1   
    29    14    29 1   
    30    14    30 1   
    31    15    31 1   
    32    15    32 1   
@<TRIPOS>SUBSTRUCTURE
     1 IW9         1 TEMP              0 ****  ****    0 ROOT
