@<TRIPOS>MOLECULE
IW9
   32    32     1     0     0
SMALL
bcc


@<TRIPOS>ATOM
      1 C8          92.9670    -5.1820    15.5080 c3         1 IW9       0.139400
      2 C10         92.5550    -9.7120    12.4600 c3         1 IW9       0.147400
      3 N12         90.0440   -10.6150    16.4500 nv         1 IW9      -0.935500
      4 C13         93.3520    -9.4400    11.2080 c3         1 IW9      -0.098100
      5 C15         93.4300    -4.6260    12.2320 c3         1 IW9      -0.087100
      6 C1          92.2260    -7.4160    15.2850 ca         1 IW9      -0.163500
      7 C2          92.0760    -8.5710    14.4850 ca         1 IW9       0.707600
      8 C3          91.5890    -7.4640    16.5020 ca         1 IW9       0.403200
      9 O4          92.9640    -6.4040    14.7890 os         1 IW9      -0.291900
     10 N5          91.3810    -9.6060    14.8770 nb         1 IW9      -0.839000
     11 O6          92.6750    -8.5630    13.3060 os         1 IW9      -0.421100
     12 N7          90.8760    -8.5200    16.9150 nb         1 IW9      -0.769000
     13 C9          90.8010    -9.5450    16.0860 ca         1 IW9       0.897900
     14 C11         93.7550    -4.1380    14.7480 c3         1 IW9      -0.073400
     15 C14         93.1680    -3.6930    13.4080 c3         1 IW9      -0.065400
     16 H1          91.9370    -4.8350    15.6600 h1         1 IW9       0.029700
     17 H2          93.4120    -5.3300    16.4990 h1         1 IW9       0.029700
     18 H3          92.9310   -10.5950    12.9800 h1         1 IW9       0.048200
     19 H4          91.5040    -9.8900    12.2240 h1         1 IW9       0.048200
     20 H5          90.2170   -11.4830    15.9720 hn         1 IW9       0.425800
     21 H6          89.8240   -10.7020    17.4280 hn         1 IW9       0.425800
     22 H7          93.2750   -10.2980    10.5410 hc         1 IW9       0.047367
     23 H8          92.9760    -8.5660    10.6750 hc         1 IW9       0.047367
     24 H9          94.4080    -9.2830    11.4300 hc         1 IW9       0.047367
     25 H10         93.0770    -4.1780    11.3020 hc         1 IW9       0.036367
     26 H11         94.4990    -4.8150    12.1170 hc         1 IW9       0.036367
     27 H12         92.9340    -5.5880    12.3420 hc         1 IW9       0.036367
     28 H13         91.6390    -6.6310    17.1940 h4         1 IW9       0.025100
     29 H14         93.8060    -3.2710    15.4130 hc         1 IW9       0.048700
     30 H15         94.7890    -4.4740    14.6170 hc         1 IW9       0.048700
     31 H16         92.0910    -3.5300    13.5220 hc         1 IW9       0.034200
     32 H17         93.5900    -2.7140    13.1680 hc         1 IW9       0.034200
@<TRIPOS>BOND
     1     1     9 1   
     2     1    14 1   
     3     1    16 1   
     4     1    17 1   
     5     2     4 1   
     6     2    11 1   
     7     2    18 1   
     8     2    19 1   
     9     3    13 1   
    10     3    20 1   
    11     3    21 1   
    12     4    22 1   
    13     4    23 1   
    14     4    24 1   
    15     5    15 1   
    16     5    25 1   
    17     5    26 1   
    18     5    27 1   
    19     6     7 ar  
    20     6     8 ar  
    21     6     9 1   
    22     7    10 ar  
    23     7    11 1   
    24     8    12 ar  
    25     8    28 1   
    26    10    13 ar  
    27    12    13 ar  
    28    14    15 1   
    29    14    29 1   
    30    14    30 1   
    31    15    31 1   
    32    15    32 1   
@<TRIPOS>SUBSTRUCTURE
     1 IW9         1 TEMP              0 ****  ****    0 ROOT
