@<TRIPOS>MOLECULE
IWA
   62    66     1     0     0
SMALL
abcg2


@<TRIPOS>ATOM
      1 C4         -20.0970     8.4140   -17.4000 cc         1 IWA       0.422900
      2 C5         -20.5470     7.1810   -16.9930 cd         1 IWA      -0.321600
      3 C6         -21.8790     6.7270   -17.2590 c          1 IWA       0.636600
      4 C8         -18.5090     7.5260   -16.3490 cd         1 IWA       0.527800
      5 N1         -22.5610     7.6710   -18.0140 ns         1 IWA      -0.474500
      6 N3         -20.8690     9.2810   -18.1210 n          1 IWA      -0.360300
      7 N           -6.6780     3.1610   -21.6070 n8         1 IWA      -0.987200
      8 CA          -7.7200     2.1970   -21.2900 c3         1 IWA       0.017500
      9 CAA        -20.3750    10.5790   -18.5480 c3         1 IWA       0.102300
     10 CAH        -19.8150     2.0650   -18.5390 ca         1 IWA      -0.099000
     11 CAI        -20.3980     1.9700   -17.2820 ca         1 IWA      -0.109500
     12 CAJ        -19.1290     3.2200   -18.8890 ca         1 IWA      -0.109500
     13 CAK        -20.3000     3.0270   -16.3880 ca         1 IWA      -0.086500
     14 CAL        -19.0230     4.2740   -17.9910 ca         1 IWA      -0.086500
     15 CAM        -14.0860     5.3200   -20.6650 ca         1 IWA      -0.185000
     16 CAN        -15.2960     5.8090   -20.2210 ca         1 IWA      -0.025000
     17 CAO        -13.0850     5.4610   -18.4510 ca         1 IWA      -0.155000
     18 C           -7.1030     0.9080   -20.6960 c          1 IWA       0.729000
     19 O           -7.7410    -0.1460   -20.8860 o          1 IWA      -0.726000
     20 NAS        -14.7560     6.3450   -16.7900 na         1 IWA      -0.303600
     21 NAV        -16.4840     6.6340   -18.1630 nc         1 IWA      -0.562100
     22 SAX        -16.9650     7.3040   -15.5620 ss         1 IWA      -0.162500
     23 CB          -8.7860     2.6990   -20.3020 c3         1 IWA      -0.095400
     24 CBA        -19.6120     4.1850   -16.7350 ca         1 IWA      -0.113300
     25 CBB        -12.9820     5.1450   -19.8020 ca         1 IWA       0.018000
     26 CBC        -16.0470     6.7320   -16.9460 cd         1 IWA       0.394700
     27 CBG        -14.3140     5.9490   -18.0280 ca         1 IWA      -0.036200
     28 CBH        -15.4150     6.1340   -18.8730 ca         1 IWA       0.031400
     29 CG          -9.5600     3.9080   -20.8180 c3         1 IWA      -0.158400
     30 CD         -10.6090     4.3810   -19.8370 c          1 IWA       0.606100
     31 OE1        -10.3680     4.5210   -18.6500 o          1 IWA      -0.585100
     32 OXT         -6.0510     1.0430   -20.0400 o          1 IWA      -0.726000
     33 C2         -22.1430     8.9100   -18.4670 c          1 IWA       0.623000
     34 O2         -22.8720     9.6210   -19.1280 o          1 IWA      -0.560000
     35 O6         -22.4000     5.6890   -16.9060 o          1 IWA      -0.522000
     36 N7         -19.5030     6.6170   -16.3080 na         1 IWA      -0.076500
     37 N9         -18.8400     8.6300   -16.9910 nc         1 IWA      -0.646000
     38 H1         -23.5130     7.4340   -18.2660 hn         1 IWA       0.341500
     39 H5          -8.2300     1.9320   -22.2230 h1         1 IWA       0.040700
     40 H6         -19.3770    10.7180   -18.1440 h1         1 IWA       0.058700
     41 H7         -20.3260    10.6360   -19.6330 h1         1 IWA       0.058700
     42 H8         -21.0180    11.3740   -18.1760 h1         1 IWA       0.058700
     43 H9         -19.8980     1.2460   -19.2410 ha         1 IWA       0.113000
     44 H10        -20.9390     1.0760   -17.0000 ha         1 IWA       0.114500
     45 H11        -18.6700     3.3030   -19.8660 ha         1 IWA       0.114500
     46 H12        -20.7710     2.9530   -15.4150 ha         1 IWA       0.124500
     47 H13        -18.4730     5.1630   -18.2780 ha         1 IWA       0.124500
     48 H14        -13.9760     5.0600   -21.7120 ha         1 IWA       0.113000
     49 H15        -16.1260     5.9330   -20.9040 ha         1 IWA       0.124000
     50 H16        -12.2640     5.3370   -17.7650 ha         1 IWA       0.161000
     51 H19        -14.2260     6.3300   -15.9310 hn         1 IWA       0.367000
     52 H21         -9.4900     1.8870   -20.1010 hc         1 IWA       0.060200
     53 H22         -8.3050     2.9480   -19.3520 hc         1 IWA       0.060200
     54 H23         -8.8810     4.7520   -20.9770 hc         1 IWA       0.049700
     55 H24        -10.0000     3.6780   -21.7920 hc         1 IWA       0.049700
     56 CAR        -19.4910     5.2910   -15.7170 c3         1 IWA       0.119900
     57 H2          -7.0790     4.0490   -21.8800 hn         1 IWA       0.374500
     58 H17        -20.3020     5.2290   -14.9920 h1         1 IWA       0.079200
     59 H18        -18.5580     5.1970   -15.1610 h1         1 IWA       0.079200
     60 NE2        -11.8180     4.6470   -20.3970 ns         1 IWA      -0.152000
     61 H3          -6.1300     3.3300   -20.7730 hn         1 IWA       0.374500
     62 H25        -11.8890     4.4780   -21.3880 hn         1 IWA       0.153000
@<TRIPOS>BOND
     1     1     2 2   
     2     1     6 1   
     3     1    37 1   
     4     2     3 1   
     5     2    36 1   
     6     3     5 1   
     7     3    35 2   
     8     4    22 1   
     9     4    36 1   
    10     4    37 2   
    11     5    33 1   
    12     5    38 1   
    13     6     9 1   
    14     6    33 1   
    15     7     8 1   
    16     7    57 1   
    17     7    61 1   
    18     8    18 1   
    19     8    23 1   
    20     8    39 1   
    21     9    40 1   
    22     9    41 1   
    23     9    42 1   
    24    10    11 ar  
    25    10    12 ar  
    26    10    43 1   
    27    11    13 ar  
    28    11    44 1   
    29    12    14 ar  
    30    12    45 1   
    31    13    24 ar  
    32    13    46 1   
    33    14    24 ar  
    34    14    47 1   
    35    15    16 ar  
    36    15    25 ar  
    37    15    48 1   
    38    16    28 ar  
    39    16    49 1   
    40    17    25 ar  
    41    17    27 ar  
    42    17    50 1   
    43    18    19 1   
    44    18    32 1   
    45    20    26 1   
    46    20    27 1   
    47    20    51 1   
    48    21    26 2   
    49    21    28 1   
    50    22    26 1   
    51    23    29 1   
    52    23    52 1   
    53    23    53 1   
    54    24    56 1   
    55    25    60 1   
    56    27    28 ar  
    57    29    30 1   
    58    29    54 1   
    59    29    55 1   
    60    30    31 2   
    61    30    60 1   
    62    33    34 2   
    63    36    56 1   
    64    56    58 1   
    65    56    59 1   
    66    60    62 1   
@<TRIPOS>SUBSTRUCTURE
     1 IWA         1 TEMP              0 ****  ****    0 ROOT
