@<TRIPOS>MOLECULE
IWA
   62    66     1     0     0
SMALL
No Charge or Current Charge


@<TRIPOS>ATOM
      1 C4         -20.6690     8.3330   -17.4000 cc         1 IWA       0.422900
      2 C5         -20.5460     6.9980   -17.1810 cd         1 IWA      -0.321600
      3 C6         -21.6530     6.0760   -17.4410 c          1 IWA       0.636600
      4 C8         -18.6840     8.0850   -16.7180 cd         1 IWA       0.527800
      5 N1         -22.7590     6.7120   -17.9080 ns         1 IWA      -0.474500
      6 N3         -21.8420     8.8800   -17.8780 n          1 IWA      -0.360300
      7 N           -7.7730     1.4340   -20.9100 n8         1 IWA      -0.987200
      8 CA          -9.2290     1.0690   -21.0500 c3         1 IWA       0.017500
      9 CAA        -21.9850    10.3380   -18.1070 c3         1 IWA       0.102300
     10 CAH        -16.1800     3.3120   -18.8860 ca         1 IWA      -0.099000
     11 CAI        -15.8280     3.4180   -17.5310 ca         1 IWA      -0.109500
     12 CAJ        -17.3520     3.9280   -19.3540 ca         1 IWA      -0.109500
     13 CAK        -16.6430     4.1440   -16.6460 ca         1 IWA      -0.086500
     14 CAL        -18.1680     4.6570   -18.4710 ca         1 IWA      -0.086500
     15 CAM        -14.1950     5.8650   -20.7230 ca         1 IWA      -0.185000
     16 CAN        -15.3450     6.6080   -20.3790 ca         1 IWA      -0.025000
     17 CAO        -13.4380     5.9120   -18.4010 ca         1 IWA      -0.155000
     18 C           -9.5920    -0.4680   -20.8870 c          1 IWA       0.729000
     19 O          -10.0670    -1.0580   -21.8490 o          1 IWA      -0.726000
     20 NAS        -15.0010     7.1240   -16.8850 na         1 IWA      -0.303600
     21 NAV        -16.5840     7.6880   -18.4920 nc         1 IWA      -0.562100
     22 SAX        -17.1660     8.4370   -15.8900 ss         1 IWA      -0.162500
     23 CB         -10.0910     1.9450   -20.1000 c3         1 IWA      -0.095400
     24 CBA        -17.8140     4.7780   -17.1100 ca         1 IWA      -0.113300
     25 CBB        -13.2360     5.5080   -19.7440 ca         1 IWA       0.018000
     26 CBC        -16.2290     7.7070   -17.1970 cd         1 IWA       0.394700
     27 CBG        -14.5900     6.6480   -18.0990 ca         1 IWA      -0.036200
     28 CBH        -15.5230     6.9870   -19.0420 ca         1 IWA       0.031400
     29 CG         -10.0280     3.4690   -20.3920 c3         1 IWA      -0.158400
     30 CD         -11.0030     4.2580   -19.5030 c          1 IWA       0.606100
     31 OE1        -10.7720     4.4470   -18.3140 o          1 IWA      -0.585100
     32 OXT         -9.3300    -1.0230   -19.8260 o          1 IWA      -0.726000
     33 C2         -22.9390     8.0430   -18.1420 c          1 IWA       0.623000
     34 O2         -24.0080     8.4580   -18.5550 o          1 IWA      -0.560000
     35 O6         -21.6180     4.8710   -17.2660 o          1 IWA      -0.522000
     36 N7         -19.2620     6.8170   -16.6790 na         1 IWA      -0.076500
     37 N9         -19.5480     9.0270   -17.0630 nc         1 IWA      -0.646000
     38 H1         -23.5530     6.1230   -18.1020 hn         1 IWA       0.341500
     39 H5          -9.5180     1.3370   -22.0760 h1         1 IWA       0.040700
     40 H6         -21.0040    10.8160   -18.2170 h1         1 IWA       0.058700
     41 H7         -22.5580    10.5250   -19.0240 h1         1 IWA       0.058700
     42 H8         -22.5100    10.7930   -17.2580 h1         1 IWA       0.058700
     43 H9         -15.5460     2.7560   -19.5720 ha         1 IWA       0.113000
     44 H10        -14.9210     2.9420   -17.1670 ha         1 IWA       0.114500
     45 H11        -17.6260     3.8470   -20.4030 ha         1 IWA       0.114500
     46 H12        -16.3570     4.2200   -15.5990 ha         1 IWA       0.124500
     47 H13        -19.0700     5.1290   -18.8510 ha         1 IWA       0.124500
     48 H14        -14.0540     5.5590   -21.7570 ha         1 IWA       0.113000
     49 H15        -16.0850     6.8710   -21.1310 ha         1 IWA       0.124000
     50 H16        -12.7410     5.6620   -17.6080 ha         1 IWA       0.161000
     51 H19        -14.5560     7.0520   -15.9800 hn         1 IWA       0.367000
     52 H21        -11.1360     1.6190   -20.1900 hc         1 IWA       0.060200
     53 H22         -9.8000     1.7560   -19.0580 hc         1 IWA       0.060200
     54 H23         -9.0120     3.8300   -20.1910 hc         1 IWA       0.049700
     55 H24        -10.2750     3.6300   -21.4480 hc         1 IWA       0.049700
     56 CAR        -18.6810     5.5720   -16.1320 c3         1 IWA       0.119900
     57 H2          -7.6830     2.4550   -20.8890 hn         1 IWA       0.374500
     58 H17        -19.4990     4.9280   -15.7870 h1         1 IWA       0.079200
     59 H18        -18.0910     5.8250   -15.2430 h1         1 IWA       0.079200
     60 NE2        -12.1160     4.7470   -20.1740 ns         1 IWA      -0.152000
     61 H3          -7.4460     1.1350   -19.9830 hn         1 IWA       0.374500
     62 H25        -12.1390     4.5110   -21.1580 hn         1 IWA       0.153000
@<TRIPOS>BOND
     1     1     2 2   
     2     1     6 1   
     3     1    37 1   
     4     2     3 1   
     5     2    36 1   
     6     3     5 1   
     7     3    35 2   
     8     4    22 1   
     9     4    36 1   
    10     4    37 2   
    11     5    33 1   
    12     5    38 1   
    13     6     9 1   
    14     6    33 1   
    15     7     8 1   
    16     7    57 1   
    17     7    61 1   
    18     8    18 1   
    19     8    23 1   
    20     8    39 1   
    21     9    40 1   
    22     9    41 1   
    23     9    42 1   
    24    10    11 ar  
    25    10    12 ar  
    26    10    43 1   
    27    11    13 ar  
    28    11    44 1   
    29    12    14 ar  
    30    12    45 1   
    31    13    24 ar  
    32    13    46 1   
    33    14    24 ar  
    34    14    47 1   
    35    15    16 ar  
    36    15    25 ar  
    37    15    48 1   
    38    16    28 ar  
    39    16    49 1   
    40    17    25 ar  
    41    17    27 ar  
    42    17    50 1   
    43    18    19 1   
    44    18    32 1   
    45    20    26 1   
    46    20    27 1   
    47    20    51 1   
    48    21    26 2   
    49    21    28 1   
    50    22    26 1   
    51    23    29 1   
    52    23    52 1   
    53    23    53 1   
    54    24    56 1   
    55    25    60 1   
    56    27    28 ar  
    57    29    30 1   
    58    29    54 1   
    59    29    55 1   
    60    30    31 2   
    61    30    60 1   
    62    33    34 2   
    63    36    56 1   
    64    56    58 1   
    65    56    59 1   
    66    60    62 1   
@<TRIPOS>SUBSTRUCTURE
     1 IWA         1 TEMP              0 ****  ****    0 ROOT
