@<TRIPOS>MOLECULE
IWC
   44    47     1     0     0
SMALL
No Charge or Current Charge


@<TRIPOS>ATOM
      1 C1          94.4210   -12.9260     8.0650 ca         1 IWC       0.401900
      2 N2          94.1090   -12.2210     9.1700 nb         1 IWC      -0.268000
      3 C3          95.1200   -11.6010     9.8130 ca         1 IWC       0.223800
      4 N4          93.3600   -13.5730     7.3940 nh         1 IWC      -0.790300
      5 C5          95.7480   -13.0080     7.6130 ca         1 IWC      -0.300000
      6 N6          96.4190   -11.6240     9.4500 nb         1 IWC      -0.227000
      7 C7          94.7830   -10.8180    11.0340 ce         1 IWC      -0.260800
      8 C8          96.7320   -12.3320     8.3490 ca         1 IWC       0.157300
      9 C9          93.5570   -10.6270    11.6150 cf         1 IWC      -0.241800
     10 C10         93.1860    -9.8570    12.8150 ca         1 IWC       0.410800
     11 C11         94.1520    -9.3650    13.7130 ca         1 IWC      -0.150000
     12 C12         93.7390    -8.6250    14.8300 ca         1 IWC      -0.065000
     13 C13         91.9600   -13.6090     7.9020 c5         1 IWC       0.230300
     14 C14         93.5060   -14.2810     6.0950 c5         1 IWC       0.230300
     15 C15         98.1920   -12.3580     7.9360 c3         1 IWC      -0.150400
     16 N16         91.8630    -9.6350    12.9860 nb         1 IWC      -0.662000
     17 C17         91.3370   -14.7190     7.0180 c5         1 IWC      -0.095900
     18 C18         92.0280   -14.4450     5.6580 c5         1 IWC      -0.095900
     19 C19         92.3640    -8.3980    15.0080 ca         1 IWC      -0.081000
     20 C20         91.4480    -8.9210    14.0590 ca         1 IWC       0.273000
     21 C21         89.6140    -7.9470    15.3580 ca         1 IWC      -0.105000
     22 C22         90.5310    -7.4350    16.2910 ca         1 IWC      -0.106000
     23 C23         90.0740    -8.6840    14.2520 ca         1 IWC      -0.081000
     24 C24         91.9060    -7.6600    16.1170 ca         1 IWC      -0.092000
     25 H1          96.0150   -13.5750     6.7280 ha         1 IWC       0.127000
     26 H2          95.6540   -10.3480    11.4920 ha         1 IWC       0.191000
     27 H3          92.6930   -11.0900    11.1350 ha         1 IWC       0.211000
     28 H4          95.2080    -9.5590    13.5550 ha         1 IWC       0.127000
     29 H5          94.4690    -8.2390    15.5390 ha         1 IWC       0.119000
     30 H6          91.8990   -13.8680     8.9690 h1         1 IWC       0.053700
     31 H7          91.4580   -12.6440     7.7470 h1         1 IWC       0.053700
     32 H8          94.0760   -13.7010     5.3550 h1         1 IWC       0.053700
     33 H9          93.9950   -15.2560     6.2300 h1         1 IWC       0.053700
     34 H10         98.8550   -12.3680     8.8090 hc         1 IWC       0.053033
     35 H11         98.4200   -13.2490     7.3380 hc         1 IWC       0.053033
     36 H12         98.4420   -11.4770     7.3340 hc         1 IWC       0.053033
     37 H13         91.5850   -15.7170     7.3990 hc         1 IWC       0.055700
     38 H14         90.2450   -14.6470     6.9660 hc         1 IWC       0.055700
     39 H15         91.6470   -13.5280     5.1940 hc         1 IWC       0.055700
     40 H16         91.8930   -15.2600     4.9390 hc         1 IWC       0.055700
     41 H17         88.5490    -7.7730    15.4910 ha         1 IWC       0.115000
     42 H18         90.1760    -6.8640    17.1460 ha         1 IWC       0.114000
     43 H19         89.3590    -9.0770    13.5350 ha         1 IWC       0.131000
     44 H20         92.6120    -7.2600    16.8420 ha         1 IWC       0.115000
@<TRIPOS>BOND
     1     1     2 ar  
     2     1     4 1   
     3     1     5 ar  
     4     2     3 ar  
     5     3     6 ar  
     6     3     7 1   
     7     4    13 1   
     8     4    14 1   
     9     5     8 ar  
    10     5    25 1   
    11     6     8 ar  
    12     7     9 2   
    13     7    26 1   
    14     8    15 1   
    15     9    10 1   
    16     9    27 1   
    17    10    11 ar  
    18    10    16 ar  
    19    11    12 ar  
    20    11    28 1   
    21    12    19 ar  
    22    12    29 1   
    23    13    17 1   
    24    13    30 1   
    25    13    31 1   
    26    14    18 1   
    27    14    32 1   
    28    14    33 1   
    29    15    34 1   
    30    15    35 1   
    31    15    36 1   
    32    16    20 ar  
    33    17    18 1   
    34    17    37 1   
    35    17    38 1   
    36    18    39 1   
    37    18    40 1   
    38    19    20 ar  
    39    19    24 ar  
    40    20    23 ar  
    41    21    22 ar  
    42    21    23 ar  
    43    21    41 1   
    44    22    24 ar  
    45    22    42 1   
    46    23    43 1   
    47    24    44 1   
@<TRIPOS>SUBSTRUCTURE
     1 IWC         1 TEMP              0 ****  ****    0 ROOT
