@<TRIPOS>MOLECULE
IWC
   44    47     1     0     0
SMALL
abcg2


@<TRIPOS>ATOM
      1 C1          94.3760   -12.8850     8.1020 ca         1 IWC       0.401900
      2 N2          94.0920   -12.1860     9.2070 nb         1 IWC      -0.268000
      3 C3          95.0980   -11.6040     9.8410 ca         1 IWC       0.223800
      4 N4          93.3580   -13.4760     7.4640 nh         1 IWC      -0.790300
      5 C5          95.7100   -12.9830     7.6510 ca         1 IWC      -0.300000
      6 N6          96.3800   -11.6400     9.4920 nb         1 IWC      -0.227000
      7 C7          94.7990   -10.8340    11.0540 ce         1 IWC      -0.260800
      8 C8          96.6780   -12.3360     8.3880 ca         1 IWC       0.157300
      9 C9          93.5630   -10.6370    11.5240 cf         1 IWC      -0.241800
     10 C10         93.2060    -9.8740    12.7190 ca         1 IWC       0.410800
     11 C11         94.1820    -9.3490    13.6090 ca         1 IWC      -0.150000
     12 C12         93.7760    -8.6440    14.7000 ca         1 IWC      -0.065000
     13 C13         91.9870   -13.4600     7.9570 c5         1 IWC       0.230300
     14 C14         93.5020   -14.2120     6.2180 c5         1 IWC       0.230300
     15 C15         98.1170   -12.3910     7.9760 c3         1 IWC      -0.150400
     16 N16         91.9170    -9.7090    12.9180 nb         1 IWC      -0.662000
     17 C17         91.2990   -14.5130     7.0950 c5         1 IWC      -0.095900
     18 C18         92.0600   -14.4380     5.7750 c5         1 IWC      -0.095900
     19 C19         92.3960    -8.4450    14.9310 ca         1 IWC      -0.081000
     20 C20         91.4960    -9.0090    13.9940 ca         1 IWC       0.273000
     21 C21         89.6440    -8.1290    15.2680 ca         1 IWC      -0.105000
     22 C22         90.5430    -7.5700    16.2000 ca         1 IWC      -0.106000
     23 C23         90.1060    -8.8340    14.1890 ca         1 IWC      -0.081000
     24 C24         91.8940    -7.7250    16.0350 ca         1 IWC      -0.092000
     25 H1          95.9790   -13.5490     6.7710 ha         1 IWC       0.127000
     26 H2          95.6690   -10.4160    11.5470 ha         1 IWC       0.191000
     27 H3          92.7200   -11.0570    10.9870 ha         1 IWC       0.211000
     28 H4          95.2360    -9.5120    13.4300 ha         1 IWC       0.127000
     29 H5          94.5000    -8.2360    15.3960 ha         1 IWC       0.119000
     30 H6          91.9470   -13.6940     9.0200 h1         1 IWC       0.053700
     31 H7          91.5360   -12.4720     7.8200 h1         1 IWC       0.053700
     32 H8          94.0740   -13.6430     5.4830 h1         1 IWC       0.053700
     33 H9          94.0220   -15.1620     6.3800 h1         1 IWC       0.053700
     34 H10         98.7490   -11.8870     8.7040 hc         1 IWC       0.053033
     35 H11         98.4560   -13.4230     7.8780 hc         1 IWC       0.053033
     36 H12         98.2610   -11.9140     7.0060 hc         1 IWC       0.053033
     37 H13         91.4160   -15.5010     7.5440 hc         1 IWC       0.055700
     38 H14         90.2320   -14.3220     6.9870 hc         1 IWC       0.055700
     39 H15         91.7120   -13.5870     5.1870 hc         1 IWC       0.055700
     40 H16         91.9550   -15.3320     5.1630 hc         1 IWC       0.055700
     41 H17         88.5800    -7.9970    15.4110 ha         1 IWC       0.115000
     42 H18         90.1590    -7.0170    17.0470 ha         1 IWC       0.114000
     43 H19         89.4240    -9.2670    13.4690 ha         1 IWC       0.131000
     44 H20         92.5900    -7.2980    16.7470 ha         1 IWC       0.115000
@<TRIPOS>BOND
     1     1     2 ar  
     2     1     4 1   
     3     1     5 ar  
     4     2     3 ar  
     5     3     6 ar  
     6     3     7 1   
     7     4    13 1   
     8     4    14 1   
     9     5     8 ar  
    10     5    25 1   
    11     6     8 ar  
    12     7     9 2   
    13     7    26 1   
    14     8    15 1   
    15     9    10 1   
    16     9    27 1   
    17    10    11 ar  
    18    10    16 ar  
    19    11    12 ar  
    20    11    28 1   
    21    12    19 ar  
    22    12    29 1   
    23    13    17 1   
    24    13    30 1   
    25    13    31 1   
    26    14    18 1   
    27    14    32 1   
    28    14    33 1   
    29    15    34 1   
    30    15    35 1   
    31    15    36 1   
    32    16    20 ar  
    33    17    18 1   
    34    17    37 1   
    35    17    38 1   
    36    18    39 1   
    37    18    40 1   
    38    19    20 ar  
    39    19    24 ar  
    40    20    23 ar  
    41    21    22 ar  
    42    21    23 ar  
    43    21    41 1   
    44    22    24 ar  
    45    22    42 1   
    46    23    43 1   
    47    24    44 1   
@<TRIPOS>SUBSTRUCTURE
     1 IWC         1 TEMP              0 ****  ****    0 ROOT
