@<TRIPOS>MOLECULE
IWD
   22    22     1     0     0
SMALL
No Charge or Current Charge


@<TRIPOS>ATOM
      1 N1          -0.6540    -0.4310     1.2040 n          1 IWD      -0.291000
      2 C2          -2.0370    -0.1490     1.1520 c          1 IWD       0.609000
      3 O2          -2.7610    -0.1580     2.1340 o          1 IWD      -0.528000
      4 N3          -2.5410     0.1510    -0.0750 ns         1 IWD      -0.473500
      5 C4          -1.8880     0.1990    -1.2650 c          1 IWD       0.608200
      6 O4          -2.4690     0.4860    -2.2990 o          1 IWD      -0.543000
      7 C5          -0.4520    -0.1270    -1.1730 cc         1 IWD      -0.221400
      8 I5           0.7180    -0.1170    -2.9530 i          1 IWD      -0.129800
      9 C6           0.1180    -0.4360     0.0420 cd         1 IWD       0.062600
     10 C7          -0.0430    -0.7980     2.5090 c3         1 IWD       0.062000
     11 C8           0.4710     0.4140     3.3350 c3         1 IWD       0.003500
     12 N8           1.4630     1.2520     2.5510 n8         1 IWD      -0.989200
     13 C9           0.9400    -0.0800     4.7590 c          1 IWD       0.727000
     14 O91          1.8580    -0.8890     4.8220 o          1 IWD      -0.711500
     15 O92          0.3970     0.3970     5.7470 o          1 IWD      -0.711500
     16 H3          -3.5260     0.3610    -0.1050 hn         1 IWD       0.333500
     17 H6           1.1630    -0.6970     0.1840 h4         1 IWD       0.217000
     18 H71          0.7910    -1.4900     2.3310 h1         1 IWD       0.075700
     19 H72         -0.7770    -1.3510     3.1100 h1         1 IWD       0.075700
     20 H8          -0.4030     1.0550     3.5190 h1         1 IWD       0.066700
     21 H81          2.3220     0.7090     2.3990 hn         1 IWD       0.378500
     22 H82          1.0960     1.4220     1.6070 hn         1 IWD       0.378500
@<TRIPOS>BOND
     1     1     2 1   
     2     1     9 1   
     3     1    10 1   
     4     2     3 2   
     5     2     4 1   
     6     4     5 1   
     7     4    16 1   
     8     5     6 2   
     9     5     7 1   
    10     7     8 1   
    11     7     9 2   
    12     9    17 1   
    13    10    11 1   
    14    10    18 1   
    15    10    19 1   
    16    11    12 1   
    17    11    13 1   
    18    11    20 1   
    19    12    21 1   
    20    12    22 1   
    21    13    14 1   
    22    13    15 1   
@<TRIPOS>SUBSTRUCTURE
     1 IWD         1 TEMP              0 ****  ****    0 ROOT
