@<TRIPOS>MOLECULE
IWD
   22    22     1     0     0
SMALL
bcc


@<TRIPOS>ATOM
      1 N1          -0.7180    -0.5110     1.2540 n          1 IWD      -0.358000
      2 C2          -2.0230    -0.0670     1.2120 c          1 IWD       0.818500
      3 O2          -2.7230     0.0200     2.1970 o          1 IWD      -0.603500
      4 N3          -2.4740     0.2690    -0.0390 ns         1 IWD      -0.607500
      5 C4          -1.7830     0.2470    -1.2380 c          1 IWD       0.750700
      6 O4          -2.3120     0.5920    -2.2740 o          1 IWD      -0.618500
      7 C5          -0.4220    -0.2190    -1.0890 cc         1 IWD      -0.221400
      8 I5           0.7650    -0.3220    -2.7910 i          1 IWD      -0.129800
      9 C6           0.0400    -0.5690     0.1280 cd         1 IWD       0.112600
     10 C7          -0.1210    -0.8230     2.5530 c3         1 IWD       0.062000
     11 C8           0.4360     0.4240     3.2610 c3         1 IWD       0.003500
     12 N8           1.3770     1.1940     2.4810 n8         1 IWD      -0.878800
     13 C9           1.0430    -0.0520     4.6060 c          1 IWD       0.937600
     14 O91          2.2590     0.1280     4.7850 o          1 IWD      -0.816800
     15 O92          0.2390    -0.6040     5.3830 o          1 IWD      -0.816800
     16 H3          -3.4330     0.5910    -0.0800 hn         1 IWD       0.333500
     17 H6           1.0490    -0.9300     0.2740 h4         1 IWD       0.167000
     18 H71          0.6780    -1.5430     2.3680 h1         1 IWD       0.075700
     19 H72         -0.8680    -1.3150     3.1690 h1         1 IWD       0.075700
     20 H8          -0.4140     1.0740     3.4940 h1         1 IWD       0.066700
     21 H81          2.2110     0.6550     2.2850 hn         1 IWD       0.323300
     22 H82          0.9810     1.4840     1.5960 hn         1 IWD       0.323300
@<TRIPOS>BOND
     1     1     2 1   
     2     1     9 1   
     3     1    10 1   
     4     2     3 2   
     5     2     4 1   
     6     4     5 1   
     7     4    16 1   
     8     5     6 2   
     9     5     7 1   
    10     7     8 1   
    11     7     9 2   
    12     9    17 1   
    13    10    11 1   
    14    10    18 1   
    15    10    19 1   
    16    11    12 1   
    17    11    13 1   
    18    11    20 1   
    19    12    21 1   
    20    12    22 1   
    21    13    14 1   
    22    13    15 1   
@<TRIPOS>SUBSTRUCTURE
     1 IWD         1 TEMP              0 ****  ****    0 ROOT
