@<TRIPOS>MOLECULE
IWE
   34    36     1     0     0
SMALL
abcg2


@<TRIPOS>ATOM
      1 N1         -15.1850    34.4250    45.4970 na         1 IWE      -0.216700
      2 C1         -18.0830    36.5100    41.8070 ca         1 IWE       0.274000
      3 C2         -18.4950    37.0610    42.9950 ca         1 IWE      -0.218000
      4 C3         -17.8560    36.7430    44.2100 ca         1 IWE       0.449000
      5 C4         -16.7870    35.8060    44.1650 ca         1 IWE      -0.278500
      6 C5         -16.0930    35.4020    45.3750 cc         1 IWE       0.496000
      7 C6         -16.4040    35.2640    42.9440 ca         1 IWE       0.063000
      8 C7         -19.4160    38.1550    45.4980 c3         1 IWE       0.297100
      9 O1         -17.5870    34.2460    39.5810 o          1 IWE      -0.536000
     10 C8         -20.7040    37.4100    45.3130 cc         1 IWE      -0.261300
     11 C9         -22.5050    35.7160    45.3970 cc         1 IWE      -0.231000
     12 C10        -22.9010    36.8700    44.7970 cd         1 IWE      -0.132000
     13 N3         -15.4180    35.2550    47.3900 nd         1 IWE      -0.027000
     14 C11        -21.8630    37.8430    44.7450 cd         1 IWE      -0.115000
     15 N2         -14.7820    34.3570    46.7540 nc         1 IWE      -0.201800
     16 N4         -16.2350    35.9210    46.5790 nd         1 IWE      -0.449000
     17 C          -17.0310    35.5900    41.7580 ca         1 IWE      -0.333500
     18 S          -16.4710    34.9350    40.2050 sy         1 IWE       1.176600
     19 N          -15.3390    33.8400    40.6530 n8         1 IWE      -1.072100
     20 O          -15.8040    36.0150    39.4970 o          1 IWE      -0.536000
     21 N5         -18.2500    37.3190    45.3600 nu         1 IWE      -0.951200
     22 S1         -20.8690    35.8020    45.9080 ss         1 IWE       0.216000
     23 H1         -14.8120    33.7810    44.8130 hn         1 IWE       0.390000
     24 H2         -19.3150    37.7630    42.9810 ha         1 IWE       0.144000
     25 H3         -15.5830    34.5620    42.8970 ha         1 IWE       0.118000
     26 H4         -19.3700    38.5810    46.5010 h1         1 IWE       0.067200
     27 H5         -19.3900    39.0030    44.8080 h1         1 IWE       0.067200
     28 H6         -23.0800    34.8170    45.5570 h4         1 IWE       0.153000
     29 H7         -23.8930    37.0230    44.3950 ha         1 IWE       0.138000
     30 H8         -21.9710    38.8230    44.3000 ha         1 IWE       0.134000
     31 H9         -15.6230    32.8720    40.5700 hn         1 IWE       0.494500
     32 H10        -14.4080    34.0270    40.3050 hn         1 IWE       0.494500
     33 H11        -17.7350    37.0850    46.1990 hn         1 IWE       0.543000
     34 CL         -18.8930    37.0060    40.3680 cl         1 IWE      -0.157000
@<TRIPOS>BOND
     1     1     6 1   
     2     1    15 1   
     3     1    23 1   
     4     2     3 ar  
     5     2    17 ar  
     6     2    34 1   
     7     3     4 ar  
     8     3    24 1   
     9     4     5 ar  
    10     4    21 1   
    11     5     6 1   
    12     5     7 ar  
    13     6    16 2   
    14     7    17 ar  
    15     7    25 1   
    16     8    10 1   
    17     8    21 1   
    18     8    26 1   
    19     8    27 1   
    20     9    18 2   
    21    10    14 2   
    22    10    22 1   
    23    11    12 2   
    24    11    22 1   
    25    11    28 1   
    26    12    14 1   
    27    12    29 1   
    28    13    15 2   
    29    13    16 1   
    30    14    30 1   
    31    17    18 1   
    32    18    19 1   
    33    18    20 2   
    34    19    31 1   
    35    19    32 1   
    36    21    33 1   
@<TRIPOS>SUBSTRUCTURE
     1 IWE         1 TEMP              0 ****  ****    0 ROOT
