@<TRIPOS>MOLECULE
IWE
   34    36     1     0     0
SMALL
No Charge or Current Charge


@<TRIPOS>ATOM
      1 N1         -16.6110    34.1480    45.5890 na         1 IWE      -0.216700
      2 C1         -17.5900    37.3270    41.5920 ca         1 IWE       0.274000
      3 C2         -17.9340    37.9910    42.7710 ca         1 IWE      -0.218000
      4 C3         -17.7020    37.4060    44.0170 ca         1 IWE       0.449000
      5 C4         -17.1180    36.1260    44.1060 ca         1 IWE      -0.278500
      6 C5         -16.8360    35.4800    45.3950 cc         1 IWE       0.496000
      7 C6         -16.7570    35.4640    42.9120 ca         1 IWE       0.063000
      8 C7         -19.4790    38.4930    45.4130 c3         1 IWE       0.297100
      9 O1         -17.7410    34.9690    39.3270 o          1 IWE      -0.536000
     10 C8         -20.2930    37.2390    45.5370 cc         1 IWE      -0.261300
     11 C9         -21.4860    35.1810    46.3540 cc         1 IWE      -0.231000
     12 C10        -21.5820    35.3650    44.9980 cd         1 IWE      -0.132000
     13 N3         -16.4400    35.0520    47.4800 nd         1 IWE      -0.027000
     14 C11        -20.9080    36.5270    44.5360 cd         1 IWE      -0.115000
     15 N2         -16.3690    33.8870    46.8980 nc         1 IWE      -0.201800
     16 N4         -16.7220    36.0520    46.5800 nd         1 IWE      -0.449000
     17 C          -17.0010    36.0540    41.6560 ca         1 IWE      -0.333500
     18 S          -16.5540    35.2210    40.1380 sy         1 IWE       1.176600
     19 N          -16.0600    33.7350    40.5820 n8         1 IWE      -1.072100
     20 O          -15.3570    35.8320    39.5680 o          1 IWE      -0.536000
     21 N5         -18.0930    38.1060    45.1480 nu         1 IWE      -0.951200
     22 S1         -20.5430    36.4670    47.1010 ss         1 IWE       0.216000
     23 H1         -16.6300    33.4200    44.8880 hn         1 IWE       0.390000
     24 H2         -18.3820    38.9770    42.7140 ha         1 IWE       0.144000
     25 H3         -16.2780    34.4890    42.9680 ha         1 IWE       0.118000
     26 H4         -19.5470    39.0720    46.3450 h1         1 IWE       0.067200
     27 H5         -19.8780    39.1170    44.6000 h1         1 IWE       0.067200
     28 H6         -21.8950    34.3910    46.9700 h4         1 IWE       0.153000
     29 H7         -22.1180    34.6870    44.3410 ha         1 IWE       0.138000
     30 H8         -20.8770    36.8190    43.4900 ha         1 IWE       0.134000
     31 H9         -16.6610    33.1700    39.9860 hn         1 IWE       0.494500
     32 H10        -15.1740    33.6920    40.0820 hn         1 IWE       0.494500
     33 H11        -17.6320    37.7240    45.9780 hn         1 IWE       0.543000
     34 Cl         -17.9030    38.1470    40.0620 cl         1 IWE      -0.157000
@<TRIPOS>BOND
     1     1     6 1   
     2     1    15 1   
     3     1    23 1   
     4     2     3 ar  
     5     2    17 ar  
     6     2    34 1   
     7     3     4 ar  
     8     3    24 1   
     9     4     5 ar  
    10     4    21 1   
    11     5     6 1   
    12     5     7 ar  
    13     6    16 2   
    14     7    17 ar  
    15     7    25 1   
    16     8    10 1   
    17     8    21 1   
    18     8    26 1   
    19     8    27 1   
    20     9    18 2   
    21    10    14 2   
    22    10    22 1   
    23    11    12 2   
    24    11    22 1   
    25    11    28 1   
    26    12    14 1   
    27    12    29 1   
    28    13    15 2   
    29    13    16 1   
    30    14    30 1   
    31    17    18 1   
    32    18    19 1   
    33    18    20 2   
    34    19    31 1   
    35    19    32 1   
    36    21    33 1   
@<TRIPOS>SUBSTRUCTURE
     1 IWE         1 TEMP              0 ****  ****    0 ROOT
