@<TRIPOS>MOLECULE
IWF
   35    37     1     0     0
SMALL
abcg2


@<TRIPOS>ATOM
      1 C10          2.6560     4.5110     5.1850 c3         1 IWF       0.153900
      2 C15         -0.5230     6.1580     6.4790 ca         1 IWF      -0.198000
      3 C17          0.8220     5.4910     8.3730 ca         1 IWF      -0.148000
      4 C02          2.3520     0.3790     6.5380 ca         1 IWF       0.282000
      5 C04          1.4810    -0.1710     4.4860 ca         1 IWF       0.454900
      6 C06          0.7720    -2.4780     4.0010 c3         1 IWF       0.224100
      7 C07          1.6400     1.1870     4.1320 ca         1 IWF      -0.100600
      8 C08          2.1710     2.0290     5.1050 ca         1 IWF       0.130500
      9 C11          1.6140     5.0630     6.1220 ca         1 IWF      -0.155300
     10 C12          0.4470     5.6580     5.6120 ca         1 IWF       0.155100
     11 C16         -0.3280     6.0710     7.8550 ca         1 IWF      -0.059000
     12 C18          1.7840     4.9920     7.4980 ca         1 IWF      -0.040000
     13 C19          1.7330     3.1280     3.2580 cc         1 IWF       0.421700
     14 N03          1.8560    -0.5450     5.7290 nb         1 IWF      -0.286000
     15 N05          0.9840    -1.0850     3.6480 nu         1 IWF      -0.912100
     16 N09          2.2280     3.2720     4.5320 na         1 IWF      -0.275300
     17 N20          1.3730     1.8970     2.9770 nd         1 IWF      -0.562100
     18 N21          2.5510     1.6640     6.3420 nb         1 IWF      -0.205000
     19 O13          0.3500     5.7020     4.2570 os         1 IWF      -0.364100
     20 H101         3.5710     4.2960     5.7340 h1         1 IWF       0.071700
     21 H102         2.8910     5.2180     4.3910 h1         1 IWF       0.071700
     22 H151        -1.4230     6.6150     6.0940 ha         1 IWF       0.118000
     23 H171         0.9720     5.4260     9.4420 ha         1 IWF       0.121000
     24 H061         0.3800    -2.9910     3.1270 h1         1 IWF       0.047033
     25 H063         1.7080    -2.9500     4.3020 h1         1 IWF       0.047033
     26 H062         0.0580    -2.5730     4.8220 h1         1 IWF       0.047033
     27 H142        -0.6660     6.2150     2.5940 h1         1 IWF       0.044367
     28 H143        -1.7120     5.7510     3.9600 h1         1 IWF       0.044367
     29 H141        -0.9020     7.3420     3.9550 h1         1 IWF       0.044367
     30 H161        -1.0870     6.4620     8.5210 ha         1 IWF       0.114000
     31 H181         2.6830     4.5310     7.8870 ha         1 IWF       0.128000
     32 H191         1.6640     3.9730     2.5930 h5         1 IWF       0.071800
     33 H051         0.6900    -0.7650     2.7400 hn         1 IWF       0.516000
     34 CL01         2.8170    -0.2140     8.1310 cl         1 IWF      -0.154000
     35 C14         -0.8090     6.2920     3.6690 c3         1 IWF       0.150900
@<TRIPOS>BOND
     1     1     9 1   
     2     1    16 1   
     3     1    20 1   
     4     1    21 1   
     5     2    10 ar  
     6     2    11 ar  
     7     2    22 1   
     8     3    11 ar  
     9     3    12 ar  
    10     3    23 1   
    11     4    14 ar  
    12     4    18 ar  
    13     4    34 1   
    14     5     7 ar  
    15     5    14 ar  
    16     5    15 1   
    17     6    15 1   
    18     6    24 1   
    19     6    25 1   
    20     6    26 1   
    21     7     8 ar  
    22     7    17 1   
    23     8    16 1   
    24     8    18 ar  
    25     9    10 ar  
    26     9    12 ar  
    27    10    19 1   
    28    11    30 1   
    29    12    31 1   
    30    13    16 1   
    31    13    17 2   
    32    13    32 1   
    33    15    33 1   
    34    19    35 1   
    35    27    35 1   
    36    28    35 1   
    37    29    35 1   
@<TRIPOS>SUBSTRUCTURE
     1 IWF         1 TEMP              0 ****  ****    0 ROOT
