@<TRIPOS>MOLECULE
IWF
   35    37     1     0     0
SMALL
No Charge or Current Charge


@<TRIPOS>ATOM
      1 C10          2.5410     4.4370     5.1440 c3         1 IWF       0.153900
      2 C15         -0.5190     6.3690     6.4510 ca         1 IWF      -0.198000
      3 C17          0.6380     5.3630     8.3370 ca         1 IWF      -0.148000
      4 C02          2.6850     0.2530     6.5650 ca         1 IWF       0.282000
      5 C04          1.5970    -0.2840     4.6200 ca         1 IWF       0.454900
      6 C06          0.9020    -2.6830     4.0050 c3         1 IWF       0.224100
      7 C07          1.6230     1.0820     4.2660 ca         1 IWF      -0.100600
      8 C08          2.2090     1.9670     5.1360 ca         1 IWF       0.130500
      9 C11          1.4990     5.0460     6.0760 ca         1 IWF      -0.155300
     10 C12          0.4370     5.8240     5.5650 ca         1 IWF       0.155100
     11 C16         -0.4170     6.1380     7.8320 ca         1 IWF      -0.059000
     12 C18          1.5930     4.8180     7.4640 ca         1 IWF      -0.040000
     13 C19          1.4160     3.0120     3.3180 cc         1 IWF       0.421700
     14 N03          2.1340    -0.7030     5.7820 nb         1 IWF      -0.286000
     15 N05          1.0170    -1.2300     3.7820 nu         1 IWF      -0.912100
     16 N09          2.0820     3.1830     4.5310 na         1 IWF      -0.275300
     17 N20          1.1200     1.7110     3.1170 nd         1 IWF      -0.562100
     18 N21          2.7550     1.5790     6.3040 nb         1 IWF      -0.205000
     19 O13          0.3680     6.0260     4.1990 os         1 IWF      -0.364100
     20 H101         3.4690     4.2450     5.6990 h1         1 IWF       0.071700
     21 H102         2.7880     5.1520     4.3480 h1         1 IWF       0.071700
     22 H151        -1.3460     6.9710     6.0880 ha         1 IWF       0.118000
     23 H171         0.7160     5.1820     9.4070 ha         1 IWF       0.121000
     24 H061         0.3910    -3.1640     3.1600 h1         1 IWF       0.047033
     25 H063         1.8970    -3.1370     4.1110 h1         1 IWF       0.047033
     26 H062         0.3270    -2.8890     4.9180 h1         1 IWF       0.047033
     27 H142        -0.5460     6.8240     2.4970 h1         1 IWF       0.044367
     28 H143        -1.6640     6.3480     3.7910 h1         1 IWF       0.044367
     29 H141        -0.6800     7.8270     3.9560 h1         1 IWF       0.044367
     30 H161        -1.1550     6.5590     8.5120 ha         1 IWF       0.114000
     31 H181         2.4050     4.2150     7.8660 ha         1 IWF       0.128000
     32 H191         1.1850     3.8380     2.6550 h5         1 IWF       0.071800
     33 H051         0.6290    -0.8380     2.9210 hn         1 IWF       0.516000
     34 Cl01         3.3850    -0.2850     8.0820 cl         1 IWF      -0.154000
     35 C14         -0.6830     6.7940     3.5850 c3         1 IWF       0.150900
@<TRIPOS>BOND
     1     1     9 1   
     2     1    16 1   
     3     1    20 1   
     4     1    21 1   
     5     2    10 ar  
     6     2    11 ar  
     7     2    22 1   
     8     3    11 ar  
     9     3    12 ar  
    10     3    23 1   
    11     4    14 ar  
    12     4    18 ar  
    13     4    34 1   
    14     5     7 ar  
    15     5    14 ar  
    16     5    15 1   
    17     6    15 1   
    18     6    24 1   
    19     6    25 1   
    20     6    26 1   
    21     7     8 ar  
    22     7    17 1   
    23     8    16 1   
    24     8    18 ar  
    25     9    10 ar  
    26     9    12 ar  
    27    10    19 1   
    28    11    30 1   
    29    12    31 1   
    30    13    16 1   
    31    13    17 2   
    32    13    32 1   
    33    15    33 1   
    34    19    35 1   
    35    27    35 1   
    36    28    35 1   
    37    29    35 1   
@<TRIPOS>SUBSTRUCTURE
     1 IWF         1 TEMP              0 ****  ****    0 ROOT
