@<TRIPOS>MOLECULE
IWG
   24    26     1     0     0
SMALL
No Charge or Current Charge


@<TRIPOS>ATOM
      1 N1          18.6850    38.4180   -12.8670 nc         1 IWG      -0.136100
      2 C5          17.2250    39.9090   -13.7330 cd         1 IWG       0.159900
      3 C6          15.4240    37.5950   -15.5940 ca         1 IWG       0.071100
      4 C7          14.5260    37.0370   -14.6490 ca         1 IWG      -0.030000
      5 C10         14.3980    35.0060   -16.0150 ca         1 IWG       0.143000
      6 C15         13.1310    35.1710   -13.9040 ca         1 IWG      -0.090000
      7 C17         12.7510    35.9030   -12.7690 ca         1 IWG      -0.097000
      8 C2          16.9600    38.8010   -14.4810 cc         1 IWG      -0.007900
      9 S3          17.9470    37.4520   -14.0240 ss         1 IWG       0.199100
     10 N4          18.2310    39.6550   -12.8120 nd         1 IWG      -0.275000
     11 O8          15.9610    38.8550   -15.4290 os         1 IWG      -0.194200
     12 C9          14.0160    35.7280   -14.8570 ca         1 IWG      -0.027000
     13 C11         15.7750    36.8750   -16.7470 ca         1 IWG      -0.089000
     14 C12         15.2670    35.5840   -16.9540 ca         1 IWG      -0.102000
     15 Cl13        13.8050    33.3750   -16.3420 cl         1 IWG      -0.185000
     16 C14         14.1250    37.7660   -13.5060 ca         1 IWG      -0.095000
     17 C16         13.2440    37.2000   -12.5720 ca         1 IWG      -0.092000
     18 H1          16.7510    40.8800   -13.7970 h4         1 IWG       0.066100
     19 H2          12.7250    34.1710   -14.0310 ha         1 IWG       0.130000
     20 H3          12.0680    35.4660   -12.0430 ha         1 IWG       0.121000
     21 H4          16.4520    37.3160   -17.4760 ha         1 IWG       0.139000
     22 H5          15.5500    35.0270   -17.8440 ha         1 IWG       0.139000
     23 H6          14.4850    38.7770   -13.3360 ha         1 IWG       0.129000
     24 H7          12.9430    37.7690   -11.6940 ha         1 IWG       0.121000
@<TRIPOS>BOND
     1     1     9 1   
     2     1    10 2   
     3     2     8 2   
     4     2    10 1   
     5     2    18 1   
     6     3     4 ar  
     7     3    11 1   
     8     3    13 ar  
     9     4    12 ar  
    10     4    16 ar  
    11     5    12 ar  
    12     5    14 ar  
    13     5    15 1   
    14     6     7 ar  
    15     6    12 ar  
    16     6    19 1   
    17     7    17 ar  
    18     7    20 1   
    19     8     9 1   
    20     8    11 1   
    21    13    14 ar  
    22    13    21 1   
    23    14    22 1   
    24    16    17 ar  
    25    16    23 1   
    26    17    24 1   
@<TRIPOS>SUBSTRUCTURE
     1 IWG         1 TEMP              0 ****  ****    0 ROOT
