@<TRIPOS>MOLECULE
IWG
   24    26     1     0     0
SMALL
abcg2


@<TRIPOS>ATOM
      1 N1          19.0180    38.6080   -13.1500 nc         1 IWG      -0.136100
      2 C5          17.5300    40.0410   -13.9510 cd         1 IWG       0.159900
      3 C6          15.3730    37.5470   -15.4310 ca         1 IWG       0.071100
      4 C7          14.4270    36.9780   -14.5460 ca         1 IWG      -0.030000
      5 C10         14.4110    35.0280   -16.0050 ca         1 IWG       0.143000
      6 C15         12.9830    35.1030   -13.9590 ca         1 IWG      -0.090000
      7 C17         12.5590    35.7810   -12.8490 ca         1 IWG      -0.097000
      8 C2          16.9650    38.8890   -14.4270 cc         1 IWG      -0.007900
      9 S3          17.9370    37.5710   -13.9470 ss         1 IWG       0.199100
     10 N4          18.6640    39.8190   -13.2540 nd         1 IWG      -0.275000
     11 O8          15.8520    38.8130   -15.1480 os         1 IWG      -0.194200
     12 C9          13.9280    35.6790   -14.8400 ca         1 IWG      -0.027000
     13 C11         15.8120    36.9000   -16.5460 ca         1 IWG      -0.089000
     14 C12         15.3200    35.6160   -16.8380 ca         1 IWG      -0.102000
     15 CL13        13.8370    33.4450   -16.3980 cl         1 IWG      -0.185000
     16 C14         13.9640    37.6570   -13.3950 ca         1 IWG      -0.095000
     17 C16         13.0520    37.0680   -12.5650 ca         1 IWG      -0.092000
     18 H1          17.1490    41.0410   -14.0900 h4         1 IWG       0.066100
     19 H2          12.5910    34.1170   -14.1650 ha         1 IWG       0.130000
     20 H3          11.8360    35.3250   -12.1870 ha         1 IWG       0.121000
     21 H4          16.5320    37.3650   -17.2070 ha         1 IWG       0.139000
     22 H5          15.6700    35.1010   -17.7220 ha         1 IWG       0.139000
     23 H6          14.3280    38.6510   -13.1710 ha         1 IWG       0.129000
     24 H7          12.7050    37.5940   -11.6850 ha         1 IWG       0.121000
@<TRIPOS>BOND
     1     1     9 1   
     2     1    10 2   
     3     2     8 2   
     4     2    10 1   
     5     2    18 1   
     6     3     4 ar  
     7     3    11 1   
     8     3    13 ar  
     9     4    12 ar  
    10     4    16 ar  
    11     5    12 ar  
    12     5    14 ar  
    13     5    15 1   
    14     6     7 ar  
    15     6    12 ar  
    16     6    19 1   
    17     7    17 ar  
    18     7    20 1   
    19     8     9 1   
    20     8    11 1   
    21    13    14 ar  
    22    13    21 1   
    23    14    22 1   
    24    16    17 ar  
    25    16    23 1   
    26    17    24 1   
@<TRIPOS>SUBSTRUCTURE
     1 IWG         1 TEMP              0 ****  ****    0 ROOT
