@<TRIPOS>MOLECULE
IWH
   35    36     1     0     0
SMALL
No Charge or Current Charge


@<TRIPOS>ATOM
      1 C1          -5.4020     0.9960    -1.3100 c3         1 IWH      -0.048800
      2 N1           0.7200    -0.7700     0.6130 n          1 IWH      -0.266000
      3 C2          -4.1260     0.5940    -0.5860 ca         1 IWH      -0.057300
      4 N2           5.0540     1.0060    -0.6720 nt         1 IWH      -0.601000
      5 O2           3.8730     2.0090     0.9190 o          1 IWH      -0.626100
      6 C3          -3.9390    -0.7300    -0.1580 ca         1 IWH      -0.119000
      7 C4          -2.7580    -1.0990     0.5050 ca         1 IWH      -0.064000
      8 C5          -1.7410    -0.1530     0.7500 ca         1 IWH      -0.117300
      9 C6          -1.9280     1.1870     0.3240 ca         1 IWH      -0.051300
     10 C7          -3.1180     1.5430    -0.3440 ca         1 IWH      -0.119000
     11 C8          -0.8760     2.2660     0.5600 c3         1 IWH      -0.054800
     12 C9          -0.4740    -0.6150     1.4810 c3         1 IWH       0.142300
     13 C10          1.7830     0.1340     0.7040 cc         1 IWH       0.039600
     14 C11          2.9190     0.0590    -0.0880 cd         1 IWH      -0.295200
     15 C12          3.0040    -1.0250    -1.0420 cd         1 IWH      -0.069000
     16 C13          1.9650    -1.9280    -1.1070 cc         1 IWH      -0.328200
     17 C14          0.7610    -1.8620    -0.2760 c          1 IWH       0.554200
     18 C15          3.9620     1.1020     0.1090 c          1 IWH       0.639300
     19 H1          -5.2760     0.9120    -2.3960 hc         1 IWH       0.043367
     20 H1A         -6.2460     0.3590    -1.0190 hc         1 IWH       0.043367
     21 H1B         -5.6790     2.0320    -1.0830 hc         1 IWH       0.043367
     22 HN2          5.7880     1.6910    -0.5740 hn         1 IWH       0.313500
     23 HN2A         5.1350     0.2600    -1.3430 hn         1 IWH       0.313500
     24 H3          -4.7080    -1.4780    -0.3400 ha         1 IWH       0.115000
     25 H4          -2.6330    -2.1300     0.8270 ha         1 IWH       0.121000
     26 H7          -3.2630     2.5680    -0.6780 ha         1 IWH       0.110000
     27 H8          -0.0160     2.1280    -0.1060 hc         1 IWH       0.044700
     28 H8A         -1.2750     3.2690     0.3680 hc         1 IWH       0.044700
     29 H8B         -0.5170     2.2620     1.5960 hc         1 IWH       0.044700
     30 H9          -0.6690    -1.5790     1.9690 h1         1 IWH       0.065200
     31 H9A         -0.2520     0.0880     2.2930 h1         1 IWH       0.065200
     32 H10          1.6140     0.8980     1.4580 h4         1 IWH       0.223000
     33 H12          3.8630    -1.1490    -1.6970 ha         1 IWH       0.179000
     34 H13          1.9910    -2.7630    -1.7980 ha         1 IWH       0.210000
     35 O1          -0.1250    -2.7010    -0.3550 o          1 IWH      -0.539000
@<TRIPOS>BOND
     1     1     3 1   
     2     1    19 1   
     3     1    20 1   
     4     1    21 1   
     5     2    12 1   
     6     2    13 1   
     7     2    17 1   
     8     3     6 ar  
     9     3    10 ar  
    10     4    18 1   
    11     4    22 1   
    12     4    23 1   
    13     5    18 2   
    14     6     7 ar  
    15     6    24 1   
    16     7     8 ar  
    17     7    25 1   
    18     8     9 ar  
    19     8    12 1   
    20     9    10 ar  
    21     9    11 1   
    22    10    26 1   
    23    11    27 1   
    24    11    28 1   
    25    11    29 1   
    26    12    30 1   
    27    12    31 1   
    28    13    14 2   
    29    13    32 1   
    30    14    15 1   
    31    14    18 1   
    32    15    16 2   
    33    15    33 1   
    34    16    17 1   
    35    16    34 1   
    36    17    35 2   
@<TRIPOS>SUBSTRUCTURE
     1 IWH         1 TEMP              0 ****  ****    0 ROOT
