@<TRIPOS>MOLECULE
IWH
   35    36     1     0     0
SMALL
abcg2


@<TRIPOS>ATOM
      1 C1          -5.4090     0.9400    -1.2150 c3         1 IWH      -0.048800
      2 N1           0.7110    -0.7010     0.5410 n          1 IWH      -0.266000
      3 C2          -4.1370     0.5530    -0.5190 ca         1 IWH      -0.057300
      4 N2           5.1120     0.8940    -0.4090 nt         1 IWH      -0.601000
      5 O2           3.7470     2.0330     0.9710 o          1 IWH      -0.626100
      6 C3          -3.9580    -0.7280    -0.0070 ca         1 IWH      -0.119000
      7 C4          -2.7630    -1.0790     0.5990 ca         1 IWH      -0.064000
      8 C5          -1.7160    -0.1710     0.7230 ca         1 IWH      -0.117300
      9 C6          -1.8850     1.1290     0.2300 ca         1 IWH      -0.051300
     10 C7          -3.0920     1.4610    -0.3820 ca         1 IWH      -0.119000
     11 C8          -0.8120     2.1740     0.3380 c3         1 IWH      -0.054800
     12 C9          -0.4560    -0.6030     1.4270 c3         1 IWH       0.142300
     13 C10          1.7460     0.1420     0.7040 cc         1 IWH       0.039600
     14 C11          2.8640     0.1060    -0.0770 cd         1 IWH      -0.295200
     15 C12          2.8970    -0.8690    -1.1090 cd         1 IWH      -0.069000
     16 C13          1.8690    -1.7350    -1.2740 cc         1 IWH      -0.328200
     17 C14          0.7130    -1.7190    -0.4190 c          1 IWH       0.554200
     18 C15          3.9380     1.0910     0.2100 c          1 IWH       0.639300
     19 H1          -5.3600     0.6950    -2.2780 hc         1 IWH       0.043367
     20 H1A         -6.2690     0.4120    -0.8030 hc         1 IWH       0.043367
     21 H1B         -5.5990     2.0100    -1.1390 hc         1 IWH       0.043367
     22 HN2          5.8800     1.5160    -0.2170 hn         1 IWH       0.313500
     23 HN2A         5.3270     0.0640    -0.9320 hn         1 IWH       0.313500
     24 H3          -4.7550    -1.4580    -0.0830 ha         1 IWH       0.115000
     25 H4          -2.6410    -2.0810     0.9890 ha         1 IWH       0.121000
     26 H7          -3.2200     2.4710    -0.7580 ha         1 IWH       0.110000
     27 H8           0.0040     1.9920    -0.3640 hc         1 IWH       0.044700
     28 H8A         -1.2110     3.1630     0.1150 hc         1 IWH       0.044700
     29 H8B         -0.3780     2.2190     1.3380 hc         1 IWH       0.044700
     30 H9          -0.6080    -1.5710     1.9020 h1         1 IWH       0.065200
     31 H9A         -0.1870     0.0970     2.2180 h1         1 IWH       0.065200
     32 H10          1.6500     0.8590     1.5070 h4         1 IWH       0.223000
     33 H12          3.7360    -0.9320    -1.7890 ha         1 IWH       0.179000
     34 H13          1.8900    -2.4820    -2.0560 ha         1 IWH       0.210000
     35 O1          -0.2170    -2.5110    -0.4790 o          1 IWH      -0.539000
@<TRIPOS>BOND
     1     1     3 1   
     2     1    19 1   
     3     1    20 1   
     4     1    21 1   
     5     2    12 1   
     6     2    13 1   
     7     2    17 1   
     8     3     6 ar  
     9     3    10 ar  
    10     4    18 1   
    11     4    22 1   
    12     4    23 1   
    13     5    18 2   
    14     6     7 ar  
    15     6    24 1   
    16     7     8 ar  
    17     7    25 1   
    18     8     9 ar  
    19     8    12 1   
    20     9    10 ar  
    21     9    11 1   
    22    10    26 1   
    23    11    27 1   
    24    11    28 1   
    25    11    29 1   
    26    12    30 1   
    27    12    31 1   
    28    13    14 2   
    29    13    32 1   
    30    14    15 1   
    31    14    18 1   
    32    15    16 2   
    33    15    33 1   
    34    16    17 1   
    35    16    34 1   
    36    17    35 2   
@<TRIPOS>SUBSTRUCTURE
     1 IWH         1 TEMP              0 ****  ****    0 ROOT
