@<TRIPOS>MOLECULE
IWI
   23    24     1     0     0
SMALL
abcg2


@<TRIPOS>ATOM
      1 C01          7.9010     7.5400    17.4460 cc         1 IWI      -0.221000
      2 C02          6.7990     8.2250    17.0330 cd         1 IWI       0.239500
      3 N03          6.2290     9.0120    18.0020 nd         1 IWI      -0.594000
      4 C04          6.8660     8.9450    19.1210 cc         1 IWI       0.401700
      5 C06          6.2260     8.1410    15.6290 c          1 IWI       0.631500
      6 O08          5.2070     8.8160    15.4040 o          1 IWI      -0.701500
      7 C10          5.9190     8.7080    21.4100 ca         1 IWI      -0.057300
      8 C11          4.7310     8.0220    21.1670 ca         1 IWI      -0.086000
      9 C13          4.8910     6.9280    23.3090 ca         1 IWI      -0.116000
     10 C15          6.5920     8.4990    22.6080 ca         1 IWI      -0.104000
     11 S05          8.2390     7.8870    19.0870 ss         1 IWI      -0.195400
     12 O07          6.8430     7.3960    14.8450 o          1 IWI      -0.701500
     13 C09          6.4720     9.6580    20.3750 c3         1 IWI      -0.060400
     14 C12          4.2240     7.1410    22.1090 ca         1 IWI      -0.106000
     15 C14          6.0700     7.6150    23.5420 ca         1 IWI       0.116000
     16 CL16         6.9170     7.3670    25.0350 cl         1 IWI      -0.232000
     17 H17          8.5160     6.8650    16.8730 h4         1 IWI       0.164000
     18 H21          4.2020     8.1780    20.2350 ha         1 IWI       0.143000
     19 H23          4.4960     6.2410    24.0450 ha         1 IWI       0.117000
     20 H24          7.5170     9.0220    22.8120 ha         1 IWI       0.123000
     21 H19          7.3260    10.2000    20.7850 hc         1 IWI       0.062700
     22 H20          5.7180    10.4000    20.1080 hc         1 IWI       0.062700
     23 H22          3.3000     6.6140    21.9140 ha         1 IWI       0.114000
@<TRIPOS>BOND
     1     1     2 2   
     2     1    11 1   
     3     1    17 1   
     4     2     3 1   
     5     2     5 1   
     6     3     4 2   
     7     4    11 1   
     8     4    13 1   
     9     5     6 1   
    10     5    12 1   
    11     7     8 ar  
    12     7    10 ar  
    13     7    13 1   
    14     8    14 ar  
    15     8    18 1   
    16     9    14 ar  
    17     9    15 ar  
    18     9    19 1   
    19    10    15 ar  
    20    10    20 1   
    21    13    21 1   
    22    13    22 1   
    23    14    23 1   
    24    15    16 1   
@<TRIPOS>SUBSTRUCTURE
     1 IWI         1 TEMP              0 ****  ****    0 ROOT
