@<TRIPOS>MOLECULE
IWI
   23    24     1     0     0
SMALL
No Charge or Current Charge


@<TRIPOS>ATOM
      1 C01          8.0460     7.7300    17.4610 cc         1 IWI      -0.221000
      2 C02          6.8370     8.2260    17.0040 cd         1 IWI       0.239500
      3 N03          6.1380     8.9560    17.9800 nd         1 IWI      -0.594000
      4 C04          6.8210     8.9890    19.1150 cc         1 IWI       0.401700
      5 C06          6.3880     7.9580    15.5690 c          1 IWI       0.631500
      6 O08          5.3120     8.4070    15.1860 o          1 IWI      -0.701500
      7 C10          5.8220     8.7210    21.4130 ca         1 IWI      -0.057300
      8 C11          4.5090     8.2160    21.3380 ca         1 IWI      -0.086000
      9 C13          4.8780     6.9160    23.3640 ca         1 IWI      -0.116000
     10 C15          6.6600     8.3150    22.4700 ca         1 IWI      -0.104000
     11 S05          8.3520     8.1570    19.1190 ss         1 IWI      -0.195400
     12 O07          7.1090     7.2990    14.8270 o          1 IWI      -0.701500
     13 C09          6.3320     9.6890    20.3530 c3         1 IWI      -0.060400
     14 C12          4.0380     7.3160    22.3110 ca         1 IWI      -0.106000
     15 C14          6.1880     7.4160    23.4410 ca         1 IWI       0.116000
     16 Cl16         7.2420     6.9130    24.7560 cl         1 IWI      -0.232000
     17 H17          8.7720     7.1400    16.9160 h4         1 IWI       0.164000
     18 H21          3.8540     8.5180    20.5230 ha         1 IWI       0.143000
     19 H23          4.5160     6.2200    24.1160 ha         1 IWI       0.117000
     20 H24          7.6780     8.6910    22.5400 ha         1 IWI       0.123000
     21 H19          7.1450    10.3020    20.7590 hc         1 IWI       0.062700
     22 H20          5.5390    10.3970    20.0850 hc         1 IWI       0.062700
     23 H22          3.0230     6.9290    22.2470 ha         1 IWI       0.114000
@<TRIPOS>BOND
     1     1     2 2   
     2     1    11 1   
     3     1    17 1   
     4     2     3 1   
     5     2     5 1   
     6     3     4 2   
     7     4    11 1   
     8     4    13 1   
     9     5     6 1   
    10     5    12 1   
    11     7     8 ar  
    12     7    10 ar  
    13     7    13 1   
    14     8    14 ar  
    15     8    18 1   
    16     9    14 ar  
    17     9    15 ar  
    18     9    19 1   
    19    10    15 ar  
    20    10    20 1   
    21    13    21 1   
    22    13    22 1   
    23    14    23 1   
    24    15    16 1   
@<TRIPOS>SUBSTRUCTURE
     1 IWI         1 TEMP              0 ****  ****    0 ROOT
