@<TRIPOS>MOLECULE
IWJ
  100   101     1     0     0
SMALL
No Charge or Current Charge


@<TRIPOS>ATOM
      1 C01         96.5190   145.9550   237.8290 c3         1 IWJ      -0.055900
      2 C02         95.2000   145.3740   238.3140 c2         1 IWJ      -0.086400
      3 C03         95.1480   144.4060   239.2490 c2         1 IWJ      -0.260200
      4 C04         93.8710   143.7440   239.7330 c6         1 IWJ       0.209500
      5 C05         92.6800   144.0170   238.7830 c6         1 IWJ      -0.068400
      6 C06         92.5730   145.5180   238.3760 c6         1 IWJ      -0.036000
      7 C07         93.9400   145.8970   237.6040 c6         1 IWJ       0.009700
      8 C08         94.0020   147.3970   237.3350 c2         1 IWJ      -0.190200
      9 C09         93.7270   147.9420   236.1270 ce         1 IWJ      -0.193000
     10 C10         93.7670   149.3800   235.7920 ce         1 IWJ      -0.055200
     11 C11         93.7330   149.7730   234.4840 cf         1 IWJ      -0.187000
     12 C12         93.7630   151.1400   233.9680 cf         1 IWJ      -0.160000
     13 C13         93.6650   151.4540   232.6440 ce         1 IWJ      -0.183000
     14 C14         93.7020   152.8010   232.0390 ce         1 IWJ      -0.050200
     15 C15         93.8450   152.9350   230.6870 cf         1 IWJ      -0.189000
     16 C16         93.9010   154.1770   229.9180 cf         1 IWJ      -0.153000
     17 C17         93.9860   154.2310   228.5620 ce         1 IWJ      -0.186000
     18 C18         94.0570   155.4810   227.7890 ce         1 IWJ      -0.153000
     19 C19         94.0840   155.6140   226.4280 cf         1 IWJ      -0.084200
     20 C20         93.9690   154.4190   225.4850 c3         1 IWJ      -0.053900
     21 C21         94.1570   156.9490   225.8260 cf         1 IWJ      -0.139000
     22 C22         94.4350   157.2530   224.5250 ce         1 IWJ      -0.203000
     23 C23         94.5000   158.6260   223.9980 ce         1 IWJ      -0.118000
     24 C24         94.7740   158.9810   222.6990 cf         1 IWJ      -0.187400
     25 C25         95.0450   157.9040   221.6440 c3         1 IWJ      -0.044900
     26 C26         94.8270   160.4260   222.2330 c          1 IWJ       0.571300
     27 C28         94.4250   161.5380   223.2310 c3         1 IWJ      -0.198400
     28 C29         94.2250   163.0010   222.6960 c6         1 IWJ       0.234200
     29 C30         93.0230   163.1280   221.7340 c2         1 IWJ      -0.127400
     30 C31         92.0720   162.1970   221.5220 c2         1 IWJ      -0.319000
     31 C32         92.9460   164.5180   221.0450 c6         1 IWJ      -0.029200
     32 C33         93.5810   165.7040   221.8670 c6         1 IWJ       0.173300
     33 C34         93.3760   165.4120   223.3710 c6         1 IWJ      -0.098400
     34 C35         94.0850   164.0900   223.8700 c6         1 IWJ      -0.029000
     35 C36         93.2250   163.5500   225.0640 c3         1 IWJ      -0.081600
     36 C37         95.4790   164.4560   224.4880 c3         1 IWJ      -0.081600
     37 C40         93.5040   153.9930   232.9730 c3         1 IWJ      -0.058900
     38 C41         93.7730   150.3690   236.9560 c3         1 IWJ      -0.056900
     39 C42         91.2790   145.6850   237.4730 c3         1 IWJ      -0.085100
     40 C43         92.2890   146.3970   239.6680 c3         1 IWJ      -0.085100
     41 O27         95.1980   160.7120   221.0990 o          1 IWJ      -0.547100
     42 O38         92.9670   166.9490   221.5090 oh         1 IWJ      -0.672000
     43 O39         95.3960   163.2680   221.9210 oh         1 IWJ      -0.678000
     44 O44         94.0900   142.3390   239.8420 oh         1 IWJ      -0.666000
     45 H1          97.3770   145.4450   238.2810 hc         1 IWJ       0.043033
     46 H2          96.6150   145.8560   236.7410 hc         1 IWJ       0.043033
     47 H3          96.6070   147.0190   238.0800 hc         1 IWJ       0.043033
     48 H5          96.0680   144.0470   239.7110 ha         1 IWJ       0.171000
     49 H7          93.6270   144.1550   240.7240 h1         1 IWJ       0.038700
     50 H8          91.7510   143.6810   239.2620 hc         1 IWJ       0.056700
     51 H9          92.7930   143.4060   237.8760 hc         1 IWJ       0.056700
     52 H10         93.9180   145.3870   236.6310 hc         1 IWJ       0.059700
     53 H11         94.2930   148.0110   238.1870 ha         1 IWJ       0.173000
     54 H12         93.4640   147.2750   235.3050 ha         1 IWJ       0.170000
     55 H13         93.6940   148.9870   233.7280 ha         1 IWJ       0.170000
     56 H14         93.8970   151.9460   234.6890 ha         1 IWJ       0.173000
     57 H15         93.5670   150.6250   231.9420 ha         1 IWJ       0.171000
     58 H16         93.9460   152.0180   230.1020 ha         1 IWJ       0.171000
     59 H17         93.8850   155.1210   230.4650 ha         1 IWJ       0.171000
     60 H18         94.0140   153.2890   228.0130 ha         1 IWJ       0.175000
     61 H19         94.1110   156.3940   228.3850 ha         1 IWJ       0.168000
     62 H20         93.3890   153.5980   225.9220 hc         1 IWJ       0.044367
     63 H21         93.4500   154.6780   224.5550 hc         1 IWJ       0.044367
     64 H22         94.9580   154.0270   225.2210 hc         1 IWJ       0.044367
     65 H23         93.9880   157.7860   226.5060 ha         1 IWJ       0.168000
     66 H24         94.6380   156.4430   223.8260 ha         1 IWJ       0.184000
     67 H25         94.3240   159.4000   224.7450 ha         1 IWJ       0.168000
     68 H26         94.2210   157.1810   221.5990 hc         1 IWJ       0.049700
     69 H27         95.1620   158.2990   220.6290 hc         1 IWJ       0.049700
     70 H28         95.9610   157.3480   221.8780 hc         1 IWJ       0.049700
     71 H29         93.5390   161.1890   223.7690 hc         1 IWJ       0.074700
     72 H30         95.1760   161.5030   224.0270 hc         1 IWJ       0.074700
     73 H31         92.0680   161.2220   222.0080 ha         1 IWJ       0.164000
     74 H32         91.2420   162.3840   220.8400 ha         1 IWJ       0.164000
     75 H33         93.4480   164.4650   220.0710 hc         1 IWJ       0.062200
     76 H34         91.8940   164.7460   220.8250 hc         1 IWJ       0.062200
     77 H35         94.6610   165.7480   221.6630 h1         1 IWJ       0.054700
     78 H36         93.7130   166.2700   223.9680 hc         1 IWJ       0.045700
     79 H37         92.2930   165.3440   223.5500 hc         1 IWJ       0.045700
     80 H38         93.0270   164.3380   225.8020 hc         1 IWJ       0.036200
     81 H39         92.2530   163.1770   224.7200 hc         1 IWJ       0.036200
     82 H40         93.7230   162.7350   225.6020 hc         1 IWJ       0.036200
     83 H41         95.3720   165.1190   225.3550 hc         1 IWJ       0.036200
     84 H42         96.0220   163.5660   224.8270 hc         1 IWJ       0.036200
     85 H43         96.1190   164.9790   223.7680 hc         1 IWJ       0.036200
     86 H44         94.4630   154.3440   233.3730 hc         1 IWJ       0.044367
     87 H45         93.0210   154.8380   232.4730 hc         1 IWJ       0.044367
     88 H46         92.8550   153.7460   233.8210 hc         1 IWJ       0.044367
     89 H47         93.2360   149.9790   237.8280 hc         1 IWJ       0.043367
     90 H48         94.7970   150.6040   237.2690 hc         1 IWJ       0.043367
     91 H49         93.2750   151.3100   236.7040 hc         1 IWJ       0.043367
     92 H50         90.3710   145.3710   238.0030 hc         1 IWJ       0.036533
     93 H51         91.1390   146.7280   237.1660 hc         1 IWJ       0.036533
     94 H52         91.3540   145.0830   236.5600 hc         1 IWJ       0.036533
     95 H53         93.1540   146.4210   240.3410 hc         1 IWJ       0.036533
     96 H54         92.0640   147.4370   239.4020 hc         1 IWJ       0.036533
     97 H55         91.4340   146.0140   240.2380 hc         1 IWJ       0.036533
     98 H56         93.4170   167.6460   222.0350 ho         1 IWJ       0.438000
     99 H57         95.4760   162.4810   221.3290 ho         1 IWJ       0.475000
    100 H58         94.7950   142.2200   240.5150 ho         1 IWJ       0.439000
@<TRIPOS>BOND
     1     1     2 1   
     2     1    45 1   
     3     1    46 1   
     4     1    47 1   
     5     2     3 2   
     6     2     7 1   
     7     3     4 1   
     8     3    48 1   
     9     4     5 1   
    10     4    44 1   
    11     4    49 1   
    12     5     6 1   
    13     5    50 1   
    14     5    51 1   
    15     6     7 1   
    16     6    39 1   
    17     6    40 1   
    18     7     8 1   
    19     7    52 1   
    20     8     9 2   
    21     8    53 1   
    22     9    10 1   
    23     9    54 1   
    24    10    11 2   
    25    10    38 1   
    26    11    12 1   
    27    11    55 1   
    28    12    13 2   
    29    12    56 1   
    30    13    14 1   
    31    13    57 1   
    32    14    15 2   
    33    14    37 1   
    34    15    16 1   
    35    15    58 1   
    36    16    17 2   
    37    16    59 1   
    38    17    18 1   
    39    17    60 1   
    40    18    19 2   
    41    18    61 1   
    42    19    20 1   
    43    19    21 1   
    44    20    62 1   
    45    20    63 1   
    46    20    64 1   
    47    21    22 2   
    48    21    65 1   
    49    22    23 1   
    50    22    66 1   
    51    23    24 2   
    52    23    67 1   
    53    24    25 1   
    54    24    26 1   
    55    25    68 1   
    56    25    69 1   
    57    25    70 1   
    58    26    27 1   
    59    26    41 2   
    60    27    28 1   
    61    27    71 1   
    62    27    72 1   
    63    28    29 1   
    64    28    34 1   
    65    28    43 1   
    66    29    30 2   
    67    29    31 1   
    68    30    73 1   
    69    30    74 1   
    70    31    32 1   
    71    31    75 1   
    72    31    76 1   
    73    32    33 1   
    74    32    42 1   
    75    32    77 1   
    76    33    34 1   
    77    33    78 1   
    78    33    79 1   
    79    34    35 1   
    80    34    36 1   
    81    35    80 1   
    82    35    81 1   
    83    35    82 1   
    84    36    83 1   
    85    36    84 1   
    86    36    85 1   
    87    37    86 1   
    88    37    87 1   
    89    37    88 1   
    90    38    89 1   
    91    38    90 1   
    92    38    91 1   
    93    39    92 1   
    94    39    93 1   
    95    39    94 1   
    96    40    95 1   
    97    40    96 1   
    98    40    97 1   
    99    42    98 1   
   100    43    99 1   
   101    44   100 1   
@<TRIPOS>SUBSTRUCTURE
     1 IWJ         1 TEMP              0 ****  ****    0 ROOT
