@<TRIPOS>MOLECULE
IWJ
  100   101     1     0     0
SMALL
abcg2


@<TRIPOS>ATOM
      1 C01         96.3560   146.5750   238.1950 c3         1 IWJ      -0.055900
      2 C02         95.0700   145.8320   238.4210 c2         1 IWJ      -0.086400
      3 C03         94.9710   144.8870   239.3550 c2         1 IWJ      -0.260200
      4 C04         93.7440   144.0620   239.6040 c6         1 IWJ       0.209500
      5 C05         92.7720   144.1630   238.4440 c6         1 IWJ      -0.068400
      6 C06         92.5460   145.6090   237.9810 c6         1 IWJ      -0.036000
      7 C07         93.9150   146.1800   237.4890 c6         1 IWJ       0.009700
      8 C08         93.8480   147.6570   237.2250 c2         1 IWJ      -0.190200
      9 C09         93.8740   148.2060   236.0030 ce         1 IWJ      -0.193000
     10 C10         93.7950   149.6240   235.7010 ce         1 IWJ      -0.055200
     11 C11         93.8360   150.0090   234.3950 cf         1 IWJ      -0.187000
     12 C12         93.7790   151.3420   233.8780 cf         1 IWJ      -0.160000
     13 C13         93.8310   151.6190   232.5490 ce         1 IWJ      -0.183000
     14 C14         93.7950   152.9300   231.9570 ce         1 IWJ      -0.050200
     15 C15         93.8730   153.0220   230.5930 cf         1 IWJ      -0.189000
     16 C16         93.8880   154.2060   229.8040 cf         1 IWJ      -0.153000
     17 C17         93.9780   154.1950   228.4430 ce         1 IWJ      -0.186000
     18 C18         94.0220   155.3830   227.6610 ce         1 IWJ      -0.153000
     19 C19         94.1220   155.4820   226.2990 cf         1 IWJ      -0.084200
     20 C20         94.1800   154.2920   225.3830 c3         1 IWJ      -0.053900
     21 C21         94.1850   156.7960   225.7280 cf         1 IWJ      -0.139000
     22 C22         94.3020   157.0880   224.4030 ce         1 IWJ      -0.203000
     23 C23         94.3860   158.4330   223.9340 ce         1 IWJ      -0.118000
     24 C24         94.5200   158.8470   222.6430 cf         1 IWJ      -0.187400
     25 C25         94.5810   157.9110   221.4690 c3         1 IWJ      -0.044900
     26 C26         94.6590   160.2710   222.3200 c          1 IWJ       0.571300
     27 C28         94.6100   161.3240   223.4180 c3         1 IWJ      -0.198400
     28 C29         94.2630   162.7400   222.9400 c6         1 IWJ       0.234200
     29 C30         92.8660   162.8590   222.3530 c2         1 IWJ      -0.127400
     30 C31         91.9000   161.9580   222.5130 c2         1 IWJ      -0.319000
     31 C32         92.6340   164.1570   221.6150 c6         1 IWJ      -0.029200
     32 C33         93.3750   165.3240   222.2750 c6         1 IWJ       0.173300
     33 C34         93.5180   165.0550   223.7660 c6         1 IWJ      -0.098400
     34 C35         94.3740   163.8020   224.1060 c6         1 IWJ      -0.029000
     35 C36         93.8370   163.2350   225.4270 c3         1 IWJ      -0.081600
     36 C37         95.8380   164.2160   224.3090 c3         1 IWJ      -0.081600
     37 C40         93.6860   154.1270   232.8580 c3         1 IWJ      -0.058900
     38 C41         93.6710   150.5880   236.8460 c3         1 IWJ      -0.056900
     39 C42         91.5520   145.5960   236.8160 c3         1 IWJ      -0.085100
     40 C43         91.9630   146.4520   239.1250 c3         1 IWJ      -0.085100
     41 O27         94.8560   160.6040   221.1440 o          1 IWJ      -0.547100
     42 O38         92.6030   166.5120   222.0270 oh         1 IWJ      -0.672000
     43 O39         95.2140   163.1220   221.9270 oh         1 IWJ      -0.678000
     44 O44         94.0820   142.6660   239.7550 oh         1 IWJ      -0.666000
     45 H1          97.1560   146.1770   238.8200 hc         1 IWJ       0.043033
     46 H2          96.6630   146.5010   237.1460 hc         1 IWJ       0.043033
     47 H3          96.2470   147.6420   238.4090 hc         1 IWJ       0.043033
     48 H5          95.8270   144.6690   239.9890 ha         1 IWJ       0.171000
     49 H7          93.2580   144.3930   240.5300 h1         1 IWJ       0.038700
     50 H8          91.8160   143.7100   238.7200 hc         1 IWJ       0.056700
     51 H9          93.1820   143.5830   237.6120 hc         1 IWJ       0.056700
     52 H10         94.1320   145.6910   236.5300 hc         1 IWJ       0.059700
     53 H11         93.7700   148.2970   238.0970 ha         1 IWJ       0.173000
     54 H12         93.9620   147.5460   235.1430 ha         1 IWJ       0.170000
     55 H13         93.9250   149.2200   233.6530 ha         1 IWJ       0.170000
     56 H14         93.6950   152.1610   234.5810 ha         1 IWJ       0.173000
     57 H15         93.9150   150.7860   231.8570 ha         1 IWJ       0.171000
     58 H16         93.9440   152.0870   230.0430 ha         1 IWJ       0.171000
     59 H17         93.8350   155.1690   230.3000 ha         1 IWJ       0.171000
     60 H18         94.0280   153.2340   227.9430 ha         1 IWJ       0.175000
     61 H19         93.9840   156.3150   228.2180 ha         1 IWJ       0.168000
     62 H20         94.0970   153.3510   225.9200 hc         1 IWJ       0.044367
     63 H21         93.3730   154.3320   224.6470 hc         1 IWJ       0.044367
     64 H22         95.1190   154.2800   224.8230 hc         1 IWJ       0.044367
     65 H23         94.1440   157.6260   226.4290 ha         1 IWJ       0.168000
     66 H24         94.3460   156.2810   223.6850 ha         1 IWJ       0.184000
     67 H25         94.3520   159.1840   224.7140 ha         1 IWJ       0.168000
     68 H26         94.4450   156.8740   221.7630 hc         1 IWJ       0.049700
     69 H27         93.8100   158.1650   220.7380 hc         1 IWJ       0.049700
     70 H28         95.5400   157.9990   220.9530 hc         1 IWJ       0.049700
     71 H29         93.9200   161.0120   224.1940 hc         1 IWJ       0.074700
     72 H30         95.6020   161.3470   223.8800 hc         1 IWJ       0.074700
     73 H31         92.0540   161.0240   223.0360 ha         1 IWJ       0.164000
     74 H32         90.9070   162.1320   222.1150 ha         1 IWJ       0.164000
     75 H33         92.9470   164.0610   220.5730 hc         1 IWJ       0.062200
     76 H34         91.5660   164.3840   221.6170 hc         1 IWJ       0.062200
     77 H35         94.3610   165.4440   221.8240 h1         1 IWJ       0.054700
     78 H36         93.9510   165.9250   224.2650 hc         1 IWJ       0.045700
     79 H37         92.5080   164.9270   224.1680 hc         1 IWJ       0.045700
     80 H38         93.7800   164.0400   226.1630 hc         1 IWJ       0.036200
     81 H39         92.8340   162.8220   225.3050 hc         1 IWJ       0.036200
     82 H40         94.4860   162.4590   225.8360 hc         1 IWJ       0.036200
     83 H41         95.9100   164.8530   225.1940 hc         1 IWJ       0.036200
     84 H42         96.4810   163.3490   224.4660 hc         1 IWJ       0.036200
     85 H43         96.2220   164.7690   223.4540 hc         1 IWJ       0.036200
     86 H44         94.5440   154.1800   233.5340 hc         1 IWJ       0.044367
     87 H45         93.6330   155.0610   232.3070 hc         1 IWJ       0.044367
     88 H46         92.7940   154.0540   233.4860 hc         1 IWJ       0.044367
     89 H47         92.7750   150.3700   237.4350 hc         1 IWJ       0.043367
     90 H48         94.5230   150.4920   237.5240 hc         1 IWJ       0.043367
     91 H49         93.6150   151.6220   236.5180 hc         1 IWJ       0.043367
     92 H50         90.5870   145.2060   237.1460 hc         1 IWJ       0.036533
     93 H51         91.3950   146.6020   236.4230 hc         1 IWJ       0.036533
     94 H52         91.9150   144.9650   236.0020 hc         1 IWJ       0.036533
     95 H53         92.6860   146.6090   239.9270 hc         1 IWJ       0.036533
     96 H54         91.6440   147.4300   238.7650 hc         1 IWJ       0.036533
     97 H55         91.0890   145.9510   239.5480 hc         1 IWJ       0.036533
     98 H56         93.1110   167.2690   222.3450 ho         1 IWJ       0.438000
     99 H57         95.2100   162.3690   221.3050 ho         1 IWJ       0.475000
    100 H58         94.6310   142.5750   240.5440 ho         1 IWJ       0.439000
@<TRIPOS>BOND
     1     1     2 1   
     2     1    45 1   
     3     1    46 1   
     4     1    47 1   
     5     2     3 2   
     6     2     7 1   
     7     3     4 1   
     8     3    48 1   
     9     4     5 1   
    10     4    44 1   
    11     4    49 1   
    12     5     6 1   
    13     5    50 1   
    14     5    51 1   
    15     6     7 1   
    16     6    39 1   
    17     6    40 1   
    18     7     8 1   
    19     7    52 1   
    20     8     9 2   
    21     8    53 1   
    22     9    10 1   
    23     9    54 1   
    24    10    11 2   
    25    10    38 1   
    26    11    12 1   
    27    11    55 1   
    28    12    13 2   
    29    12    56 1   
    30    13    14 1   
    31    13    57 1   
    32    14    15 2   
    33    14    37 1   
    34    15    16 1   
    35    15    58 1   
    36    16    17 2   
    37    16    59 1   
    38    17    18 1   
    39    17    60 1   
    40    18    19 2   
    41    18    61 1   
    42    19    20 1   
    43    19    21 1   
    44    20    62 1   
    45    20    63 1   
    46    20    64 1   
    47    21    22 2   
    48    21    65 1   
    49    22    23 1   
    50    22    66 1   
    51    23    24 2   
    52    23    67 1   
    53    24    25 1   
    54    24    26 1   
    55    25    68 1   
    56    25    69 1   
    57    25    70 1   
    58    26    27 1   
    59    26    41 2   
    60    27    28 1   
    61    27    71 1   
    62    27    72 1   
    63    28    29 1   
    64    28    34 1   
    65    28    43 1   
    66    29    30 2   
    67    29    31 1   
    68    30    73 1   
    69    30    74 1   
    70    31    32 1   
    71    31    75 1   
    72    31    76 1   
    73    32    33 1   
    74    32    42 1   
    75    32    77 1   
    76    33    34 1   
    77    33    78 1   
    78    33    79 1   
    79    34    35 1   
    80    34    36 1   
    81    35    80 1   
    82    35    81 1   
    83    35    82 1   
    84    36    83 1   
    85    36    84 1   
    86    36    85 1   
    87    37    86 1   
    88    37    87 1   
    89    37    88 1   
    90    38    89 1   
    91    38    90 1   
    92    38    91 1   
    93    39    92 1   
    94    39    93 1   
    95    39    94 1   
    96    40    95 1   
    97    40    96 1   
    98    40    97 1   
    99    42    98 1   
   100    43    99 1   
   101    44   100 1   
@<TRIPOS>SUBSTRUCTURE
     1 IWJ         1 TEMP              0 ****  ****    0 ROOT
