@<TRIPOS>MOLECULE
IWM
   34    36     1     0     0
SMALL
No Charge or Current Charge


@<TRIPOS>ATOM
      1 C10          2.1700     4.2480     5.0720 c3         1 IWM       0.126900
      2 C13          0.8070     6.8700     4.1290 c3         1 IWM       0.216600
      3 C17         -0.8370     6.2320     7.5230 ca         1 IWM      -0.103000
      4 C20          0.8380     2.6170     3.5830 cc         1 IWM       0.416700
      5 C02          3.1070     0.1670     6.5180 ca         1 IWM       0.284000
      6 C04          1.6990    -0.5740     4.8700 ca         1 IWM       0.456900
      7 C06          1.1920    -3.0630     4.4580 c3         1 IWM       0.223100
      8 C07          1.4790     0.7690     4.4980 ca         1 IWM      -0.098600
      9 C08          2.1250     1.7530     5.2030 ca         1 IWM       0.127500
     10 C11          1.1100     4.9860     5.8960 ca         1 IWM      -0.070300
     11 C12          0.4830     6.1890     5.4620 ca         1 IWM      -0.154300
     12 C16         -0.4860     6.7970     6.2870 ca         1 IWM      -0.086000
     13 C18         -0.2200     5.0490     7.9520 ca         1 IWM      -0.087000
     14 C19          0.7460     4.4330     7.1420 ca         1 IWM      -0.091000
     15 F14          2.0990     7.2670     4.0650 f          1 IWM      -0.126500
     16 F15          0.5840     6.0530     3.0730 f          1 IWM      -0.126500
     17 N03          2.5220    -0.8790     5.8920 nb         1 IWM      -0.284000
     18 N05          1.0730    -1.6170     4.1940 nu         1 IWM      -0.909100
     19 N09          1.7180     2.9200     4.6230 na         1 IWM      -0.281300
     20 N21          0.6670     1.2850     3.4770 nd         1 IWM      -0.554100
     21 N22          2.9540     1.4800     6.2290 nb         1 IWM      -0.216000
     22 H101         3.0730     4.1330     5.6860 h1         1 IWM       0.087200
     23 H102         2.4720     4.8230     4.1900 h1         1 IWM       0.087200
     24 H131         0.1790     7.7580     4.0000 h2         1 IWM       0.069700
     25 H171        -1.5860     6.7130     8.1480 ha         1 IWM       0.121000
     26 H201         0.3740     3.3800     2.9680 h5         1 IWM       0.079800
     27 H061         0.5740    -3.6350     3.7530 h1         1 IWM       0.048367
     28 H063         2.2340    -3.3910     4.3480 h1         1 IWM       0.048367
     29 H062         0.8590    -3.2980     5.4780 h1         1 IWM       0.048367
     30 H161        -0.9750     7.7160     5.9700 ha         1 IWM       0.116000
     31 H181        -0.4900     4.6100     8.9100 ha         1 IWM       0.123000
     32 H191         1.2170     3.5150     7.4880 ha         1 IWM       0.141000
     33 H051         0.4630    -1.3090     3.4330 hn         1 IWM       0.518000
     34 Cl01         4.1810    -0.2210     7.8530 cl         1 IWM      -0.149000
@<TRIPOS>BOND
     1     1    10 1   
     2     1    19 1   
     3     1    22 1   
     4     1    23 1   
     5     2    11 1   
     6     2    15 1   
     7     2    16 1   
     8     2    24 1   
     9     3    12 ar  
    10     3    13 ar  
    11     3    25 1   
    12     4    19 1   
    13     4    20 2   
    14     4    26 1   
    15     5    17 ar  
    16     5    21 ar  
    17     5    34 1   
    18     6     8 ar  
    19     6    17 ar  
    20     6    18 1   
    21     7    18 1   
    22     7    27 1   
    23     7    28 1   
    24     7    29 1   
    25     8     9 ar  
    26     8    20 1   
    27     9    19 1   
    28     9    21 ar  
    29    10    11 ar  
    30    10    14 ar  
    31    11    12 ar  
    32    12    30 1   
    33    13    14 ar  
    34    13    31 1   
    35    14    32 1   
    36    18    33 1   
@<TRIPOS>SUBSTRUCTURE
     1 IWM         1 TEMP              0 ****  ****    0 ROOT
