@<TRIPOS>MOLECULE
IWM
   34    36     1     0     0
SMALL
abcg2


@<TRIPOS>ATOM
      1 C10          2.2170     4.2950     5.0010 c3         1 IWM       0.126900
      2 C13          0.7220     6.8290     4.1950 c3         1 IWM       0.216600
      3 C17         -0.7860     6.0670     7.5530 ca         1 IWM      -0.103000
      4 C20          1.0020     2.6690     3.4720 cc         1 IWM       0.416700
      5 C02          2.8900     0.2680     6.5350 ca         1 IWM       0.284000
      6 C04          1.5970    -0.5390     4.8190 ca         1 IWM       0.456900
      7 C06          1.1850    -2.9560     4.5910 c3         1 IWM       0.223100
      8 C07          1.4450     0.8000     4.3940 ca         1 IWM      -0.098600
      9 C08          2.0890     1.7710     5.1540 ca         1 IWM       0.127500
     10 C11          1.1650     4.9560     5.8680 ca         1 IWM      -0.070300
     11 C12          0.4760     6.1160     5.4880 ca         1 IWM      -0.154300
     12 C16         -0.4910     6.6610     6.3330 ca         1 IWM      -0.086000
     13 C18         -0.1040     4.9180     7.9350 ca         1 IWM      -0.087000
     14 C19          0.8630     4.3750     7.0990 ca         1 IWM      -0.091000
     15 F14          2.0430     7.2130     4.0670 f          1 IWM      -0.126500
     16 F15          0.4690     6.0160     3.1060 f          1 IWM      -0.126500
     17 N03          2.3430    -0.7690     5.9220 nb         1 IWM      -0.284000
     18 N05          1.0360    -1.5700     4.1830 nu         1 IWM      -0.909100
     19 N09          1.8010     2.9680     4.5510 na         1 IWM      -0.281300
     20 N21          0.7680     1.3840     3.3410 nd         1 IWM      -0.554100
     21 N22          2.8340     1.5520     6.2510 nb         1 IWM      -0.216000
     22 H101         3.1330     4.1580     5.5750 h1         1 IWM       0.087200
     23 H102         2.4620     4.8820     4.1240 h1         1 IWM       0.087200
     24 H131         0.1080     7.7210     4.0850 h2         1 IWM       0.069700
     25 H171        -1.5390     6.5000     8.1980 ha         1 IWM       0.121000
     26 H201         0.6310     3.4460     2.8220 h5         1 IWM       0.079800
     27 H061         0.6280    -3.5750     3.8920 h1         1 IWM       0.048367
     28 H063         2.2330    -3.2570     4.5790 h1         1 IWM       0.048367
     29 H062         0.7930    -3.1120     5.5970 h1         1 IWM       0.048367
     30 H161        -1.0130     7.5590     6.0270 ha         1 IWM       0.116000
     31 H181        -0.3200     4.4470     8.8850 ha         1 IWM       0.123000
     32 H191         1.3960     3.4840     7.4050 ha         1 IWM       0.141000
     33 H051         0.4900    -1.3640     3.3610 hn         1 IWM       0.518000
     34 CL01         3.8410    -0.1390     7.9610 cl         1 IWM      -0.149000
@<TRIPOS>BOND
     1     1    10 1   
     2     1    19 1   
     3     1    22 1   
     4     1    23 1   
     5     2    11 1   
     6     2    15 1   
     7     2    16 1   
     8     2    24 1   
     9     3    12 ar  
    10     3    13 ar  
    11     3    25 1   
    12     4    19 1   
    13     4    20 2   
    14     4    26 1   
    15     5    17 ar  
    16     5    21 ar  
    17     5    34 1   
    18     6     8 ar  
    19     6    17 ar  
    20     6    18 1   
    21     7    18 1   
    22     7    27 1   
    23     7    28 1   
    24     7    29 1   
    25     8     9 ar  
    26     8    20 1   
    27     9    19 1   
    28     9    21 ar  
    29    10    11 ar  
    30    10    14 ar  
    31    11    12 ar  
    32    12    30 1   
    33    13    14 ar  
    34    13    31 1   
    35    14    32 1   
    36    18    33 1   
@<TRIPOS>SUBSTRUCTURE
     1 IWM         1 TEMP              0 ****  ****    0 ROOT
