@<TRIPOS>MOLECULE
IWN
   45    48     1     0     0
SMALL
No Charge or Current Charge


@<TRIPOS>ATOM
      1 C10         91.8090    -9.5090    14.3290 c          1 IWN       0.644700
      2 C13         93.4320    -9.9170    12.4450 cc         1 IWN       0.101600
      3 C15         95.4120   -10.1460    10.9150 cd         1 IWN      -0.048000
      4 C16         92.7080   -10.8430    11.7110 cd         1 IWN      -0.140000
      5 C17         93.3720   -11.4110    10.5860 cd         1 IWN      -0.034000
      6 C20         93.9870   -12.4540     8.8700 cc         1 IWN       0.592900
      7 C22         93.8890   -13.3900     7.7310 ca         1 IWN      -0.108900
      8 C23         94.9780   -13.5590     6.8420 ca         1 IWN      -0.072500
      9 C24         94.8910   -14.4480     5.7570 ca         1 IWN      -0.124000
     10 C25         93.7160   -15.1840     5.5400 ca         1 IWN      -0.096000
     11 C26         92.6270   -15.0290     6.4110 ca         1 IWN      -0.124000
     12 C27         92.7100   -14.1410     7.4980 ca         1 IWN      -0.072500
     13 N1          90.5770    -8.5660    16.4070 na         1 IWN       0.179800
     14 C2          91.5410    -8.5020    15.3950 cc         1 IWN      -0.203600
     15 C3          92.1510    -7.2750    15.6110 cd         1 IWN      -0.178300
     16 C4          91.5210    -6.7170    16.7440 cd         1 IWN       0.248900
     17 N5          90.5700    -7.4740    17.2440 nc         1 IWN      -0.505800
     18 C7          93.2270    -6.5430    14.8450 c3         1 IWN       0.230900
     19 O8          94.4450    -7.2970    14.9320 os         1 IWN      -0.475000
     20 C9          95.6000    -6.6220    14.4050 c3         1 IWN       0.138900
     21 O11         91.1020   -10.4930    14.1710 o          1 IWN      -0.573100
     22 N12         92.9300    -9.2600    13.5650 ns         1 IWN      -0.399100
     23 C14         94.7740    -9.5830    12.0190 cc         1 IWN      -0.203000
     24 N18         94.6480   -11.0830    10.2240 na         1 IWN       0.280400
     25 N19         95.0800   -11.7330     9.1170 nd         1 IWN      -0.602100
     26 N21         92.9190   -12.2950     9.7310 nc         1 IWN      -0.403300
     27 H39         96.4120    -9.9290    10.5620 h4         1 IWN       0.162000
     28 H40         91.6900   -11.1280    11.9420 ha         1 IWN       0.177000
     29 H41         95.9010   -13.0010     6.9870 ha         1 IWN       0.131500
     30 H42         95.7370   -14.5670     5.0830 ha         1 IWN       0.113500
     31 H43         93.6500   -15.8720     4.7000 ha         1 IWN       0.111000
     32 H44         91.7150   -15.5990     6.2450 ha         1 IWN       0.113500
     33 H45         91.8490   -14.0430     8.1550 ha         1 IWN       0.131500
     34 H28         91.7270    -5.7610    17.2090 h4         1 IWN       0.043100
     35 H30         89.0250    -9.4490    17.5450 h1         1 IWN       0.069367
     36 H29         88.9570    -9.7630    15.7870 h1         1 IWN       0.069367
     37 H31         90.1740   -10.5970    16.8000 h1         1 IWN       0.069367
     38 H33         92.9160    -6.4150    13.8000 h1         1 IWN       0.040700
     39 H32         93.3600    -5.5440    15.2820 h1         1 IWN       0.040700
     40 H36         96.4880    -7.2610    14.4920 h1         1 IWN       0.035700
     41 H35         95.4600    -6.3740    13.3450 h1         1 IWN       0.035700
     42 H34         95.7940    -5.6930    14.9570 h1         1 IWN       0.035700
     43 H37         93.4940    -8.5100    13.9470 hn         1 IWN       0.360500
     44 H38         95.3190    -8.8500    12.6030 ha         1 IWN       0.135000
     45 C6          89.6240    -9.6610    16.6500 c3         1 IWN       0.068900
@<TRIPOS>BOND
     1     1    14 1   
     2     1    21 2   
     3     1    22 1   
     4     2     4 2   
     5     2    22 1   
     6     2    23 1   
     7     3    23 2   
     8     3    24 1   
     9     3    27 1   
    10     4     5 1   
    11     4    28 1   
    12     5    24 1   
    13     5    26 2   
    14     6     7 1   
    15     6    25 2   
    16     6    26 1   
    17     7     8 ar  
    18     7    12 ar  
    19     8     9 ar  
    20     8    29 1   
    21     9    10 ar  
    22     9    30 1   
    23    10    11 ar  
    24    10    31 1   
    25    11    12 ar  
    26    11    32 1   
    27    12    33 1   
    28    13    14 1   
    29    13    17 1   
    30    13    45 1   
    31    14    15 2   
    32    15    16 1   
    33    15    18 1   
    34    16    17 2   
    35    16    34 1   
    36    18    19 1   
    37    18    38 1   
    38    18    39 1   
    39    19    20 1   
    40    20    40 1   
    41    20    41 1   
    42    20    42 1   
    43    22    43 1   
    44    23    44 1   
    45    24    25 1   
    46    35    45 1   
    47    36    45 1   
    48    37    45 1   
@<TRIPOS>SUBSTRUCTURE
     1 IWN         1 TEMP              0 ****  ****    0 ROOT
