@<TRIPOS>MOLECULE
IWN
   45    48     1     0     0
SMALL
bcc


@<TRIPOS>ATOM
      1 C10         91.8200    -9.4210    14.2680 c          1 IWN       0.711700
      2 C13         93.5160   -10.0630    12.6030 cc         1 IWN       0.101600
      3 C15         95.4790   -10.5720    11.2780 cd         1 IWN      -0.015300
      4 C16         92.7350   -10.8420    11.7810 cd         1 IWN      -0.158000
      5 C17         93.3490   -11.4790    10.6910 cd         1 IWN       0.016700
      6 C20         93.9300   -12.5420     8.9790 cc         1 IWN       0.592900
      7 C22         93.8530   -13.3770     7.7790 ca         1 IWN      -0.108900
      8 C23         95.0000   -13.6790     7.0450 ca         1 IWN      -0.090500
      9 C24         94.9140   -14.4610     5.9040 ca         1 IWN      -0.142000
     10 C25         93.6840   -14.9510     5.4830 ca         1 IWN      -0.114000
     11 C26         92.5390   -14.6530     6.2100 ca         1 IWN      -0.142000
     12 C27         92.6220   -13.8710     7.3520 ca         1 IWN      -0.090500
     13 N1          90.7150    -8.6560    16.3510 na         1 IWN       0.158400
     14 C2          91.6000    -8.4380    15.3500 cc         1 IWN      -0.152900
     15 C3          92.1090    -7.1600    15.5430 cd         1 IWN      -0.243600
     16 C4          91.4540    -6.7090    16.6930 cd         1 IWN       0.314200
     17 N5          90.6240    -7.6210    17.1660 nc         1 IWN      -0.505800
     18 C7          93.0970    -6.4030    14.7270 c3         1 IWN       0.207700
     19 O8          94.3610    -7.0340    14.8260 os         1 IWN      -0.428600
     20 C9          95.3540    -6.3780    14.0670 c3         1 IWN       0.115700
     21 O11         90.9570   -10.2100    13.9340 o          1 IWN      -0.573100
     22 N12         93.0520    -9.3470    13.6960 ns         1 IWN      -0.466100
     23 C14         94.9120    -9.9410    12.3340 cc         1 IWN      -0.221000
     24 N18         94.6910   -11.3260    10.4780 na         1 IWN       0.179000
     25 N19         95.0670   -12.0040     9.3880 nd         1 IWN      -0.602100
     26 N21         92.8560   -12.2570     9.7380 nc         1 IWN      -0.403300
     27 H39         96.5280   -10.5140    11.0280 h4         1 IWN       0.180000
     28 H40         91.6770   -10.9780    11.9240 ha         1 IWN       0.195000
     29 H41         95.9630   -13.3010     7.3650 ha         1 IWN       0.149500
     30 H42         95.8100   -14.6890     5.3420 ha         1 IWN       0.131500
     31 H43         93.6180   -15.5610     4.5910 ha         1 IWN       0.129000
     32 H44         91.5770   -15.0300     5.8880 ha         1 IWN       0.131500
     33 H45         91.7260   -13.6400     7.9130 ha         1 IWN       0.149500
     34 H28         91.5590    -5.7520    17.1830 h4         1 IWN       0.043100
     35 H30         89.5230    -9.7270    17.6320 h1         1 IWN       0.069367
     36 H29         89.0980    -9.9300    15.9230 h1         1 IWN       0.069367
     37 H31         90.5330   -10.7330    16.5850 h1         1 IWN       0.069367
     38 H33         92.7800    -6.3540    13.6760 h1         1 IWN       0.040700
     39 H32         93.1540    -5.3720    15.0930 h1         1 IWN       0.040700
     40 H36         96.2860    -6.9240    14.1960 h1         1 IWN       0.035700
     41 H35         95.1030    -6.3570    13.0010 h1         1 IWN       0.035700
     42 H34         95.5000    -5.3470    14.4060 h1         1 IWN       0.035700
     43 H37         93.7200    -8.7070    14.1230 hn         1 IWN       0.360500
     44 H38         95.5430    -9.3420    12.9760 ha         1 IWN       0.153000
     45 C6          89.9200    -9.8370    16.6280 c3         1 IWN       0.039600
@<TRIPOS>BOND
     1     1    14 1   
     2     1    21 2   
     3     1    22 1   
     4     2     4 2   
     5     2    22 1   
     6     2    23 1   
     7     3    23 2   
     8     3    24 1   
     9     3    27 1   
    10     4     5 1   
    11     4    28 1   
    12     5    24 1   
    13     5    26 2   
    14     6     7 1   
    15     6    25 2   
    16     6    26 1   
    17     7     8 ar  
    18     7    12 ar  
    19     8     9 ar  
    20     8    29 1   
    21     9    10 ar  
    22     9    30 1   
    23    10    11 ar  
    24    10    31 1   
    25    11    12 ar  
    26    11    32 1   
    27    12    33 1   
    28    13    14 1   
    29    13    17 1   
    30    13    45 1   
    31    14    15 2   
    32    15    16 1   
    33    15    18 1   
    34    16    17 2   
    35    16    34 1   
    36    18    19 1   
    37    18    38 1   
    38    18    39 1   
    39    19    20 1   
    40    20    40 1   
    41    20    41 1   
    42    20    42 1   
    43    22    43 1   
    44    23    44 1   
    45    24    25 1   
    46    35    45 1   
    47    36    45 1   
    48    37    45 1   
@<TRIPOS>SUBSTRUCTURE
     1 IWN         1 TEMP              0 ****  ****    0 ROOT
