@<TRIPOS>MOLECULE
IWP
   37    40     1     0     0
SMALL
No Charge or Current Charge


@<TRIPOS>ATOM
      1 C01         -4.7180    11.1000    -5.7100 ca         1 IWP      -0.136000
      2 C02         -4.0190    11.7420    -4.6750 ca         1 IWP      -0.069000
      3 C03         -5.5880    11.8300    -6.5390 ca         1 IWP      -0.060000
      4 C04         -4.1890    13.1210    -4.4720 ca         1 IWP      -0.162000
      5 C05        -10.5770    12.3750    -5.4420 cc         1 IWP      -0.228000
      6 C06        -10.6540    12.6840    -4.1260 cd         1 IWP       0.169900
      7 C07         -9.6370    12.1430    -8.3140 cc         1 IWP      -0.144000
      8 C08         -8.8400    11.8390   -13.0860 ca         1 IWP       0.094900
      9 C10         -5.7720    13.2170    -6.3360 ca         1 IWP      -0.163300
     10 C11         -5.0590    13.8510    -5.2980 ca         1 IWP       0.207000
     11 C12         -9.7790    10.8080   -13.2410 ca         1 IWP       0.036000
     12 C13         -9.3680    12.9360    -5.8910 cc         1 IWP       0.359500
     13 C14         -8.8030    12.2970    -9.4590 cc         1 IWP       0.174000
     14 C15         -8.9610    12.7970    -7.2670 cc         1 IWP      -0.223500
     15 C16         -9.1440    11.7700   -10.7930 ca         1 IWP       0.149000
     16 C17        -10.3790    10.2970   -12.0730 ca         1 IWP       0.330300
     17 F18         -5.2010    15.1800    -5.0870 f          1 IWP      -0.167000
     18 N20         -8.5220    12.3200   -11.8660 nb         1 IWP      -0.147000
     19 N21        -10.0650    10.7740   -10.8560 nb         1 IWP      -0.269000
     20 N22         -7.6840    12.9880    -9.2150 nd         1 IWP      -0.441800
     21 N23         -8.7110    13.5640    -4.9280 nd         1 IWP      -0.384300
     22 N24         -7.8090    13.2740    -7.8660 na         1 IWP       0.164800
     23 O25        -11.3030     9.2960   -12.1200 oh         1 IWP      -0.621300
     24 O26         -9.5470    13.4040    -3.7650 os         1 IWP      -0.059700
     25 H01         -4.5840    10.0320    -5.8720 ha         1 IWP       0.120000
     26 H02         -3.3450    11.1740    -4.0360 ha         1 IWP       0.118000
     27 H03         -6.1130    11.3080    -7.3370 ha         1 IWP       0.132000
     28 H04         -3.6490    13.6270    -3.6760 ha         1 IWP       0.134000
     29 H05        -11.2930    11.8150    -6.0300 ha         1 IWP       0.162000
     30 H06        -11.3970    12.4670    -3.3700 h4         1 IWP       0.062100
     31 H07        -10.5920    11.6300    -8.2730 ha         1 IWP       0.158000
     32 H08         -8.3350    12.2840   -13.9420 h4         1 IWP       0.045100
     33 H091        -6.1230    14.5190    -8.0100 h1         1 IWP       0.087200
     34 H092        -7.1730    14.8480    -6.6400 h1         1 IWP       0.087200
     35 H25        -11.5670     9.1140   -11.1920 ho         1 IWP       0.493000
     36 C09         -6.7170    14.0390    -7.2230 c3         1 IWP       0.139900
     37 F19        -10.0890    10.3330   -14.4710 f          1 IWP      -0.148000
@<TRIPOS>BOND
     1     1     2 ar  
     2     1     3 ar  
     3     1    25 1   
     4     2     4 ar  
     5     2    26 1   
     6     3     9 ar  
     7     3    27 1   
     8     4    10 ar  
     9     4    28 1   
    10     5     6 2   
    11     5    12 1   
    12     5    29 1   
    13     6    24 1   
    14     6    30 1   
    15     7    13 1   
    16     7    14 2   
    17     7    31 1   
    18     8    11 ar  
    19     8    18 ar  
    20     8    32 1   
    21     9    10 ar  
    22     9    36 1   
    23    10    17 1   
    24    11    16 ar  
    25    11    37 1   
    26    12    14 1   
    27    12    21 2   
    28    13    15 1   
    29    13    20 2   
    30    14    22 1   
    31    15    18 ar  
    32    15    19 ar  
    33    16    19 ar  
    34    16    23 1   
    35    20    22 1   
    36    21    24 1   
    37    22    36 1   
    38    23    35 1   
    39    33    36 1   
    40    34    36 1   
@<TRIPOS>SUBSTRUCTURE
     1 IWP         1 TEMP              0 ****  ****    0 ROOT
