@<TRIPOS>MOLECULE
IWP
   37    40     1     0     0
SMALL
bcc


@<TRIPOS>ATOM
      1 C01         -4.7960    11.6240    -4.8740 ca         1 IWP      -0.154000
      2 C02         -3.6880    11.7640    -5.7000 ca         1 IWP      -0.087000
      3 C03         -5.9430    12.3610    -5.1280 ca         1 IWP      -0.078000
      4 C04         -3.7270    12.6410    -6.7740 ca         1 IWP      -0.180000
      5 C05        -11.3220    12.1920    -5.4670 cc         1 IWP      -0.376600
      6 C06        -11.4420    12.3080    -4.1290 cd         1 IWP       0.279600
      7 C07         -9.7620    11.9770    -8.1560 cc         1 IWP      -0.227300
      8 C08         -7.8180    11.9680   -12.5720 ca         1 IWP       0.423200
      9 C10         -6.0100    13.2450    -6.2020 ca         1 IWP      -0.163300
     10 C11         -4.8840    13.3610    -7.0030 ca         1 IWP       0.171900
     11 C12         -8.7970    11.1470   -13.0610 ca         1 IWP      -0.129700
     12 C13         -9.9700    12.5600    -5.7040 cc         1 IWP       0.424800
     13 C14         -8.8030    12.3130    -9.1220 cc         1 IWP       0.239300
     14 C15         -9.3220    12.5890    -7.0040 cc         1 IWP      -0.172800
     15 C16         -8.7820    11.9150   -10.5300 ca         1 IWP       0.675000
     16 C17         -9.7960    10.7260   -12.1780 ca         1 IWP       0.658600
     17 F18         -4.9050    14.2120    -8.0400 f          1 IWP      -0.131900
     18 N20         -7.8040    12.3600   -11.2980 nb         1 IWP      -0.673000
     19 N21         -9.7740    11.1180   -10.9250 nb         1 IWP      -0.795000
     20 N22         -7.8550    13.0760    -8.6000 nd         1 IWP      -0.441800
     21 N23         -9.3650    12.8550    -4.5840 nd         1 IWP      -0.384300
     22 N24         -8.1750    13.2390    -7.3330 na         1 IWP       0.143400
     23 O25        -10.7540     9.9340   -12.6190 oh         1 IWP      -0.582300
     24 O26        -10.2840    12.7040    -3.6010 os         1 IWP      -0.104100
     25 H01         -4.7670    10.9440    -4.0340 ha         1 IWP       0.138000
     26 H02         -2.7890    11.1940    -5.5100 ha         1 IWP       0.136000
     27 H03         -6.8070    12.2550    -4.4840 ha         1 IWP       0.150000
     28 H04         -2.8710    12.7690    -7.4250 ha         1 IWP       0.152000
     29 H05        -12.0740    11.9070    -6.1820 ha         1 IWP       0.180000
     30 H06        -12.2610    12.1490    -3.4450 h4         1 IWP       0.062100
     31 H07        -10.6430    11.3700    -8.2790 ha         1 IWP       0.176000
     32 H08         -7.0230    12.3220   -13.2190 h4         1 IWP       0.045100
     33 H091        -7.0630    14.9470    -7.0170 h1         1 IWP       0.087200
     34 H092        -7.7850    14.2650    -5.5740 h1         1 IWP       0.087200
     35 H25        -11.3610     9.7240   -11.8950 ho         1 IWP       0.454000
     36 C09         -7.2700    14.0150    -6.4960 c3         1 IWP       0.110600
     37 F19         -8.8130    10.7480   -14.3330 f          1 IWP      -0.112900
@<TRIPOS>BOND
     1     1     2 ar  
     2     1     3 ar  
     3     1    25 1   
     4     2     4 ar  
     5     2    26 1   
     6     3     9 ar  
     7     3    27 1   
     8     4    10 ar  
     9     4    28 1   
    10     5     6 2   
    11     5    12 1   
    12     5    29 1   
    13     6    24 1   
    14     6    30 1   
    15     7    13 1   
    16     7    14 2   
    17     7    31 1   
    18     8    11 ar  
    19     8    18 ar  
    20     8    32 1   
    21     9    10 ar  
    22     9    36 1   
    23    10    17 1   
    24    11    16 ar  
    25    11    37 1   
    26    12    14 1   
    27    12    21 2   
    28    13    15 1   
    29    13    20 2   
    30    14    22 1   
    31    15    18 ar  
    32    15    19 ar  
    33    16    19 ar  
    34    16    23 1   
    35    20    22 1   
    36    21    24 1   
    37    22    36 1   
    38    23    35 1   
    39    33    36 1   
    40    34    36 1   
@<TRIPOS>SUBSTRUCTURE
     1 IWP         1 TEMP              0 ****  ****    0 ROOT
