@<TRIPOS>MOLECULE
IWR
   50    55     1     0     0
SMALL
No Charge or Current Charge


@<TRIPOS>ATOM
      1 CAF          5.2730    -0.3670    -0.0650 ca         1 IWR       0.230000
      2 NAG          4.6200    -1.5310    -0.3340 nb         1 IWR      -0.691000
      3 CAH          5.3440    -2.6560    -0.5460 ca         1 IWR       0.353900
      4 CAI          6.7450    -2.6780    -0.5010 ca         1 IWR      -0.163000
      5 CAJ          7.4370    -1.4900    -0.2260 ca         1 IWR      -0.061000
      6 CAA          6.6920    -0.3170    -0.0050 ca         1 IWR      -0.053000
      7 CAB          7.3580     0.8890     0.2740 ca         1 IWR      -0.129000
      8 CAC          6.6220     2.0600     0.4950 ca         1 IWR      -0.071000
      9 CAD          5.2210     2.0320     0.4400 ca         1 IWR      -0.143000
     10 CAE          4.5350     0.8260     0.1610 ca         1 IWR       0.005000
     11 NAK          3.1130     0.7390     0.0920 ns         1 IWR      -0.133000
     12 CAL          2.0950     1.6670     0.2510 c          1 IWR       0.621700
     13 OAM          2.2950     2.8500     0.5070 o          1 IWR      -0.583100
     14 CAN          0.6820     1.1300     0.0890 ca         1 IWR      -0.149600
     15 CAS         -0.4160     2.0080     0.2350 ca         1 IWR      -0.063000
     16 CAO         -1.7350     1.5450     0.0910 ca         1 IWR      -0.105500
     17 CAR          0.4180    -0.2310    -0.2090 ca         1 IWR      -0.063000
     18 CAQ         -0.9040    -0.6890    -0.3510 ca         1 IWR      -0.105500
     19 CAP         -1.9910     0.1930    -0.2000 ca         1 IWR      -0.022000
     20 NAT         -3.3480    -0.2700    -0.3470 n          1 IWR      -0.224000
     21 CAW         -4.2450     0.3690    -1.2140 c          1 IWR       0.583500
     22 OBE         -3.9540     1.2550    -2.0070 o          1 IWR      -0.484500
     23 CAV         -5.5740    -0.4000    -1.1090 c5         1 IWR      -0.160200
     24 CBB         -6.6690     0.4380    -0.3530 c5         1 IWR      -0.025000
     25 CBC         -7.4790    -0.7340     0.2620 c5         1 IWR      -0.082400
     26 CBA         -6.0550     1.0300     0.9060 c2         1 IWR      -0.228200
     27 CAZ         -5.8210     0.0280     1.7530 c2         1 IWR      -0.228200
     28 CAY         -6.2700    -1.2600     1.0820 c5         1 IWR      -0.025000
     29 CAU         -5.2920    -1.5800    -0.1070 c5         1 IWR      -0.160200
     30 CAX         -3.8220    -1.4120     0.3150 c          1 IWR       0.583500
     31 OBD         -3.1500    -2.1730     1.0000 o          1 IWR      -0.484500
     32 H1           4.7810    -3.5640    -0.7570 h4         1 IWR       0.019100
     33 H2           7.2810    -3.6070    -0.6780 ha         1 IWR       0.125000
     34 H3           8.5240    -1.4810    -0.1860 ha         1 IWR       0.121000
     35 H4           8.4450     0.9200     0.3180 ha         1 IWR       0.118000
     36 H5           7.1400     2.9930     0.7100 ha         1 IWR       0.117000
     37 H6           4.6880     2.9600     0.6170 ha         1 IWR       0.152000
     38 H7           2.7930    -0.1970    -0.1160 hn         1 IWR       0.187000
     39 H8          -0.2530     3.0600     0.4630 ha         1 IWR       0.130500
     40 H9          -2.5600     2.2430     0.2150 ha         1 IWR       0.127000
     41 H10          1.2210    -0.9520    -0.3360 ha         1 IWR       0.130500
     42 H11         -1.0760    -1.7350    -0.5910 ha         1 IWR       0.127000
     43 H12         -5.9110    -0.7060    -2.1050 hc         1 IWR       0.096200
     44 H13         -7.2480     1.1410    -0.9660 hc         1 IWR       0.090700
     45 H14         -8.3080    -0.3940     0.8950 hc         1 IWR       0.061200
     46 H15         -7.8750    -1.4480    -0.4720 hc         1 IWR       0.061200
     47 H17         -5.8510     2.0880     1.0970 ha         1 IWR       0.205000
     48 H18         -5.3920     0.1270     2.7540 ha         1 IWR       0.205000
     49 H20         -6.4890    -2.0910     1.7650 hc         1 IWR       0.090700
     50 H21         -5.4560    -2.5840    -0.5150 hc         1 IWR       0.096200
@<TRIPOS>BOND
     1     1     2 ar  
     2     1     6 ar  
     3     1    10 ar  
     4     2     3 ar  
     5     3     4 ar  
     6     3    32 1   
     7     4     5 ar  
     8     4    33 1   
     9     5     6 ar  
    10     5    34 1   
    11     6     7 ar  
    12     7     8 ar  
    13     7    35 1   
    14     8     9 ar  
    15     8    36 1   
    16     9    10 ar  
    17     9    37 1   
    18    10    11 1   
    19    11    12 1   
    20    11    38 1   
    21    12    13 2   
    22    12    14 1   
    23    14    15 ar  
    24    14    17 ar  
    25    15    16 ar  
    26    15    39 1   
    27    16    19 ar  
    28    16    40 1   
    29    17    18 ar  
    30    17    41 1   
    31    18    19 ar  
    32    18    42 1   
    33    19    20 1   
    34    20    21 1   
    35    20    30 1   
    36    21    22 2   
    37    21    23 1   
    38    23    24 1   
    39    23    29 1   
    40    23    43 1   
    41    24    25 1   
    42    24    26 1   
    43    24    44 1   
    44    25    28 1   
    45    25    45 1   
    46    25    46 1   
    47    26    27 2   
    48    26    47 1   
    49    27    28 1   
    50    27    48 1   
    51    28    29 1   
    52    28    49 1   
    53    29    30 1   
    54    29    50 1   
    55    30    31 2   
@<TRIPOS>SUBSTRUCTURE
     1 IWR         1 TEMP              0 ****  ****    0 ROOT
