@<TRIPOS>MOLECULE
IWR
   50    55     1     0     0
SMALL
bcc


@<TRIPOS>ATOM
      1 CAF          5.1740    -0.3570     0.0560 ca         1 IWR       0.360600
      2 NAG          4.4800    -1.5120    -0.0300 nb         1 IWR      -0.691000
      3 CAH          5.1370    -2.6420    -0.0450 ca         1 IWR       0.419200
      4 CAI          6.5420    -2.7200     0.0240 ca         1 IWR      -0.246300
      5 CAJ          7.2600    -1.5610     0.1080 ca         1 IWR      -0.079000
      6 CAA          6.5840    -0.3210     0.1270 ca         1 IWR      -0.118300
      7 CAB          7.2490     0.9220     0.2120 ca         1 IWR      -0.147000
      8 CAC          6.5140     2.0740     0.2240 ca         1 IWR      -0.089000
      9 CAD          5.1060     2.0590     0.1540 ca         1 IWR      -0.161000
     10 CAE          4.4310     0.8640     0.0710 ca         1 IWR       0.032300
     11 NAK          3.0540     0.7000    -0.0110 ns         1 IWR      -0.459100
     12 CAL          2.0790     1.6390     0.0350 c          1 IWR       0.688700
     13 OAM          2.2840     2.8270     0.2120 o          1 IWR      -0.583100
     14 CAN          0.6910     1.1100    -0.1280 ca         1 IWR      -0.149600
     15 CAS         -0.3510     1.8220     0.4610 ca         1 IWR      -0.081000
     16 CAO         -1.6570     1.3800     0.3450 ca         1 IWR      -0.123500
     17 CAR          0.4020    -0.0360    -0.8650 ca         1 IWR      -0.081000
     18 CAQ         -0.9070    -0.4690    -1.0040 ca         1 IWR      -0.123500
     19 CAP         -1.9310     0.2350    -0.3910 ca         1 IWR       0.070600
     20 NAT         -3.2660    -0.2170    -0.5120 n          1 IWR      -0.450600
     21 CAW         -4.2560     0.4980    -1.1720 c          1 IWR       0.726000
     22 OBE         -4.0670     1.5440    -1.7390 o          1 IWR      -0.560000
     23 CAV         -5.5470    -0.2590    -1.0280 c5         1 IWR      -0.160200
     24 CBB         -6.6220     0.4590    -0.1500 c5         1 IWR      -0.025000
     25 CBC         -7.3570    -0.7770     0.3900 c5         1 IWR      -0.082400
     26 CBA         -5.9190     0.9280     1.1040 c2         1 IWR      -0.178200
     27 CAZ         -5.6110    -0.1540     1.8210 c2         1 IWR      -0.178200
     28 CAY         -6.1040    -1.3640     1.0590 c5         1 IWR      -0.025000
     29 CAU         -5.1940    -1.5020    -0.2020 c5         1 IWR      -0.160200
     30 CAX         -3.7240    -1.3850     0.0820 c          1 IWR       0.726000
     31 OBD         -3.0300    -2.1310     0.7230 o          1 IWR      -0.560000
     32 H1           4.5480    -3.5490    -0.1160 h4         1 IWR       0.019100
     33 H2           7.0270    -3.6860     0.0070 ha         1 IWR       0.143000
     34 H3           8.3410    -1.5790     0.1610 ha         1 IWR       0.139000
     35 H4           8.3290     0.9480     0.2660 ha         1 IWR       0.136000
     36 H5           7.0140     3.0320     0.2890 ha         1 IWR       0.135000
     37 H6           4.5730     2.9960     0.1690 ha         1 IWR       0.170000
     38 H7           2.7870    -0.2760    -0.0580 hn         1 IWR       0.353500
     39 H8          -0.1410     2.7180     1.0290 ha         1 IWR       0.148500
     40 H9          -2.4570     1.9200     0.8340 ha         1 IWR       0.145000
     41 H10          1.1810    -0.5900    -1.3740 ha         1 IWR       0.148500
     42 H11         -1.1260    -1.3460    -1.5970 ha         1 IWR       0.145000
     43 H12         -5.9470    -0.4940    -2.0160 hc         1 IWR       0.096200
     44 H13         -7.2050     1.2000    -0.6910 hc         1 IWR       0.090700
     45 H14         -8.1390    -0.5260     1.1060 hc         1 IWR       0.061200
     46 H15         -7.7740    -1.4150    -0.3930 hc         1 IWR       0.061200
     47 H17         -5.6390     1.9510     1.3120 ha         1 IWR       0.155000
     48 H18         -5.0270    -0.1900     2.7310 ha         1 IWR       0.155000
     49 H20         -6.2130    -2.2860     1.6250 hc         1 IWR       0.090700
     50 H21         -5.3950    -2.4400    -0.7220 hc         1 IWR       0.096200
@<TRIPOS>BOND
     1     1     2 ar  
     2     1     6 ar  
     3     1    10 ar  
     4     2     3 ar  
     5     3     4 ar  
     6     3    32 1   
     7     4     5 ar  
     8     4    33 1   
     9     5     6 ar  
    10     5    34 1   
    11     6     7 ar  
    12     7     8 ar  
    13     7    35 1   
    14     8     9 ar  
    15     8    36 1   
    16     9    10 ar  
    17     9    37 1   
    18    10    11 1   
    19    11    12 1   
    20    11    38 1   
    21    12    13 2   
    22    12    14 1   
    23    14    15 ar  
    24    14    17 ar  
    25    15    16 ar  
    26    15    39 1   
    27    16    19 ar  
    28    16    40 1   
    29    17    18 ar  
    30    17    41 1   
    31    18    19 ar  
    32    18    42 1   
    33    19    20 1   
    34    20    21 1   
    35    20    30 1   
    36    21    22 2   
    37    21    23 1   
    38    23    24 1   
    39    23    29 1   
    40    23    43 1   
    41    24    25 1   
    42    24    26 1   
    43    24    44 1   
    44    25    28 1   
    45    25    45 1   
    46    25    46 1   
    47    26    27 2   
    48    26    47 1   
    49    27    28 1   
    50    27    48 1   
    51    28    29 1   
    52    28    49 1   
    53    29    30 1   
    54    29    50 1   
    55    30    31 2   
@<TRIPOS>SUBSTRUCTURE
     1 IWR         1 TEMP              0 ****  ****    0 ROOT
