@<TRIPOS>MOLECULE
IWS
   21    23     1     0     0
SMALL
No Charge or Current Charge


@<TRIPOS>ATOM
      1 C4          15.7780    37.2950   -16.1740 ca         1 IWS      -0.034000
      2 C8          14.8800    34.6960   -16.7890 ca         1 IWS      -0.157000
      3 C10         12.8020    35.3840   -13.7510 c          1 IWS       0.587800
      4 C13         15.8560    35.3110   -17.5920 ca         1 IWS      -0.063000
      5 C1          14.7990    36.6790   -15.3690 ca         1 IWS      -0.170500
      6 C2          14.2090    37.3330   -14.2020 cc         1 IWS       0.488000
      7 C3          14.3570    35.3820   -15.6830 ca         1 IWS       0.079600
      8 N5          13.2690    36.6760   -13.4720 n          1 IWS      -0.153300
      9 N6          14.4880    38.5500   -13.7370 nd         1 IWS      -0.654000
     10 N7          13.3780    34.8050   -14.8520 ns         1 IWS      -0.504600
     11 C9          16.3040    36.6090   -17.2840 ca         1 IWS      -0.139000
     12 C11         12.9210    37.5320   -12.4700 cc         1 IWS      -0.181000
     13 C12         13.6550    38.6870   -12.6120 cd         1 IWS       0.240900
     14 O14         11.9570    34.8080   -13.0850 o          1 IWS      -0.529000
     15 H1          16.1300    38.2990   -15.9440 ha         1 IWS       0.142000
     16 H2          14.5350    33.6930   -17.0290 ha         1 IWS       0.120000
     17 H3          16.2660    34.7840   -18.4510 ha         1 IWS       0.120000
     18 H4          13.0550    33.8690   -15.0730 hn         1 IWS       0.460000
     19 H5          17.0590    37.0830   -17.9060 ha         1 IWS       0.124000
     20 H6          12.1750    37.2240   -11.7480 h4         1 IWS       0.179000
     21 H7          13.6400    39.5800   -11.9990 h4         1 IWS       0.043100
@<TRIPOS>BOND
     1     1     5 ar  
     2     1    11 ar  
     3     1    15 1   
     4     2     4 ar  
     5     2     7 ar  
     6     2    16 1   
     7     3     8 1   
     8     3    10 1   
     9     3    14 2   
    10     4    11 ar  
    11     4    17 1   
    12     5     6 1   
    13     5     7 ar  
    14     6     8 1   
    15     6     9 2   
    16     7    10 1   
    17     8    12 1   
    18     9    13 1   
    19    10    18 1   
    20    11    19 1   
    21    12    13 2   
    22    12    20 1   
    23    13    21 1   
@<TRIPOS>SUBSTRUCTURE
     1 IWS         1 TEMP              0 ****  ****    0 ROOT
