@<TRIPOS>MOLECULE
IWS
   21    23     1     0     0
SMALL
abcg2


@<TRIPOS>ATOM
      1 C4          15.7850    37.2900   -16.1880 ca         1 IWS      -0.034000
      2 C8          14.8760    34.7190   -16.7640 ca         1 IWS      -0.157000
      3 C10         12.8160    35.3900   -13.7710 c          1 IWS       0.587800
      4 C13         15.8330    35.3190   -17.5580 ca         1 IWS      -0.063000
      5 C1          14.8170    36.6970   -15.3750 ca         1 IWS      -0.170500
      6 C2          14.2420    37.3450   -14.2290 cc         1 IWS       0.488000
      7 C3          14.3630    35.4080   -15.6660 ca         1 IWS       0.079600
      8 N5          13.2920    36.6720   -13.4990 n          1 IWS      -0.153300
      9 N6          14.4710    38.5250   -13.7280 nd         1 IWS      -0.654000
     10 N7          13.4010    34.8260   -14.8570 ns         1 IWS      -0.504600
     11 C9          16.2910    36.6070   -17.2740 ca         1 IWS      -0.139000
     12 C11         12.9060    37.5020   -12.4720 cc         1 IWS      -0.181000
     13 C12         13.6480    38.6290   -12.6390 cd         1 IWS       0.240900
     14 O14         11.9700    34.8600   -13.0900 o          1 IWS      -0.529000
     15 H1          16.1310    38.2880   -15.9540 ha         1 IWS       0.142000
     16 H2          14.5230    33.7200   -16.9870 ha         1 IWS       0.120000
     17 H3          16.2270    34.7810   -18.4100 ha         1 IWS       0.120000
     18 H4          13.0840    33.8940   -15.0870 hn         1 IWS       0.460000
     19 H5          17.0400    37.0680   -17.9030 ha         1 IWS       0.124000
     20 H6          12.1680    37.2200   -11.7420 h4         1 IWS       0.179000
     21 H7          13.6310    39.5180   -12.0280 h4         1 IWS       0.043100
@<TRIPOS>BOND
     1     1     5 ar  
     2     1    11 ar  
     3     1    15 1   
     4     2     4 ar  
     5     2     7 ar  
     6     2    16 1   
     7     3     8 1   
     8     3    10 1   
     9     3    14 2   
    10     4    11 ar  
    11     4    17 1   
    12     5     6 1   
    13     5     7 ar  
    14     6     8 1   
    15     6     9 2   
    16     7    10 1   
    17     8    12 1   
    18     9    13 1   
    19    10    18 1   
    20    11    19 1   
    21    12    13 2   
    22    12    20 1   
    23    13    21 1   
@<TRIPOS>SUBSTRUCTURE
     1 IWS         1 TEMP              0 ****  ****    0 ROOT
