@<TRIPOS>MOLECULE
IWU
   13    14     1     0     0
SMALL
abcg2


@<TRIPOS>ATOM
      1 C1           5.1320    22.0750    29.5640 ca         1 IWU      -0.114900
      2 C2           5.8920    22.0810    28.3730 ca         1 IWU       0.403900
      3 C3           4.6620    23.7390    27.5610 ca         1 IWU       0.341500
      4 C4           3.8460    23.8180    28.6890 ca         1 IWU      -0.032600
      5 C5           4.0820    22.9460    29.7510 ca         1 IWU       0.043000
      6 N1           5.6720    22.9020    27.3680 nb         1 IWU      -0.653000
      7 N2           4.1710    24.7030    26.7550 na         1 IWU      -0.167100
      8 N3           3.1500    25.3170    27.3360 nc         1 IWU      -0.144400
      9 N4           2.9330    24.8100    28.4890 nd         1 IWU      -0.204400
     10 BR1          5.5900    20.8390    30.9070 br         1 IWU      -0.065100
     11 H1           6.7100    21.3800    28.2550 h4         1 IWU       0.043100
     12 H2           3.4830    22.9610    30.6520 ha         1 IWU       0.156000
     13 H3           4.4770    24.9870    25.8340 hn         1 IWU       0.397000
@<TRIPOS>BOND
     1     1     2 ar  
     2     1     5 ar  
     3     1    10 1   
     4     2     6 ar  
     5     2    11 1   
     6     3     4 ar  
     7     3     6 ar  
     8     3     7 1   
     9     4     5 ar  
    10     4     9 1   
    11     5    12 1   
    12     7     8 1   
    13     7    13 1   
    14     8     9 2   
@<TRIPOS>SUBSTRUCTURE
     1 IWU         1 TEMP              0 ****  ****    0 ROOT
