@<TRIPOS>MOLECULE
IWU
   13    14     1     0     0
SMALL
No Charge or Current Charge


@<TRIPOS>ATOM
      1 C1           5.1600    22.0360    29.5830 ca         1 IWU      -0.114900
      2 C2           5.9220    22.0460    28.3910 ca         1 IWU       0.403900
      3 C3           4.6560    23.7670    27.5340 ca         1 IWU       0.341500
      4 C4           3.8720    23.8210    28.6540 ca         1 IWU      -0.032600
      5 C5           4.0990    22.9500    29.7280 ca         1 IWU       0.043000
      6 N1           5.6790    22.9040    27.3630 nb         1 IWU      -0.653000
      7 N2           4.1510    24.7380    26.7250 na         1 IWU      -0.167100
      8 N3           3.0800    25.3690    27.3480 nc         1 IWU      -0.144400
      9 N4           2.9050    24.8060    28.5390 nd         1 IWU      -0.204400
     10 Br1          5.5650    20.7960    30.9850 br         1 IWU      -0.065100
     11 H1           6.7480    21.3480    28.2550 h4         1 IWU       0.043100
     12 H2           3.4850    22.9810    30.6250 ha         1 IWU       0.156000
     13 H3           4.4790    24.9940    25.8020 hn         1 IWU       0.397000
@<TRIPOS>BOND
     1     1     2 ar  
     2     1     5 ar  
     3     1    10 1   
     4     2     6 ar  
     5     2    11 1   
     6     3     4 ar  
     7     3     6 ar  
     8     3     7 1   
     9     4     5 ar  
    10     4     9 1   
    11     5    12 1   
    12     7     8 1   
    13     7    13 1   
    14     8     9 2   
@<TRIPOS>SUBSTRUCTURE
     1 IWU         1 TEMP              0 ****  ****    0 ROOT
