@<TRIPOS>MOLECULE
IWV
   38    40     1     0     0
SMALL
abcg2


@<TRIPOS>ATOM
      1 C10          1.6450     4.4680     4.2080 c3         1 IWV       0.127900
      2 C13         -0.7410     4.9420     7.1520 ca         1 IWV      -0.101000
      3 C15         -0.2440     7.0970     6.2230 ca         1 IWV      -0.119000
      4 C24          0.3930     2.5110     3.2030 cc         1 IWV       0.405700
      5 C02          3.2840     0.8290     5.9450 ca         1 IWV       0.283000
      6 C04          1.7670    -0.3720     4.7080 ca         1 IWV       0.455900
      7 C06          1.6440    -2.8230     4.9060 c3         1 IWV       0.223100
      8 C07          1.3260     0.8630     4.1790 ca         1 IWV      -0.104600
      9 C08          1.9710     2.0050     4.6430 ca         1 IWV       0.130500
     10 C11          0.7660     5.1100     5.2580 ca         1 IWV      -0.088300
     11 C12          0.0900     4.3480     6.2100 ca         1 IWV      -0.080000
     12 C14         -0.9170     6.3210     7.1550 ca         1 IWV      -0.092000
     13 C16          0.5950     6.4980     5.2890 ca         1 IWV      -0.053000
     14 C19          3.0580     8.6100     3.3020 c3         1 IWV       0.208000
     15 F20          2.1090     9.0190     2.4400 f          1 IWV      -0.099667
     16 F21          4.1090     8.1940     2.5870 f          1 IWV      -0.099667
     17 F22          3.4430     9.6820     4.0180 f          1 IWV      -0.099667
     18 N03          2.7720    -0.3450     5.6110 nb         1 IWV      -0.283000
     19 N05          1.2340    -1.5440     4.3550 nu         1 IWV      -0.909100
     20 N09          1.3660     3.0570     4.0060 na         1 IWV      -0.282300
     21 N17          1.2480     7.3480     4.3440 ns         1 IWV      -0.151000
     22 N25          0.3400     1.2010     3.2730 nd         1 IWV      -0.549100
     23 N26          2.9700     2.0420     5.5400 nb         1 IWV      -0.198000
     24 O23          3.4190     6.8700     4.8900 o          1 IWV      -0.515100
     25 H101         2.6940     4.5600     4.4870 h1         1 IWV       0.089700
     26 H102         1.5210     4.9760     3.2520 h1         1 IWV       0.089700
     27 H131        -1.2540     4.3240     7.8780 ha         1 IWV       0.124000
     28 H151        -0.3570     8.1740     6.2140 ha         1 IWV       0.121000
     29 H241        -0.2370     3.1360     2.5890 h5         1 IWV       0.069800
     30 H061         1.0580    -3.6010     4.4220 h1         1 IWV       0.048700
     31 H063         2.7030    -3.0060     4.7210 h1         1 IWV       0.048700
     32 H062         1.4690    -2.8630     5.9820 h1         1 IWV       0.048700
     33 H121         0.2010     3.2730     6.2090 ha         1 IWV       0.130000
     34 H141        -1.5660     6.7910     7.8820 ha         1 IWV       0.123000
     35 H051         0.4760    -1.5240     3.6910 hn         1 IWV       0.517000
     36 H171         0.6680     8.0020     3.8360 hn         1 IWV       0.174000
     37 CL01         4.5900     0.7500     7.1240 cl         1 IWV      -0.142000
     38 C18          2.5800     7.4940     4.2690 c          1 IWV       0.548100
@<TRIPOS>BOND
     1     1    10 1   
     2     1    20 1   
     3     1    25 1   
     4     1    26 1   
     5     2    11 ar  
     6     2    12 ar  
     7     2    27 1   
     8     3    12 ar  
     9     3    13 ar  
    10     3    28 1   
    11     4    20 1   
    12     4    22 2   
    13     4    29 1   
    14     5    18 ar  
    15     5    23 ar  
    16     5    37 1   
    17     6     8 ar  
    18     6    18 ar  
    19     6    19 1   
    20     7    19 1   
    21     7    30 1   
    22     7    31 1   
    23     7    32 1   
    24     8     9 ar  
    25     8    22 1   
    26     9    20 1   
    27     9    23 ar  
    28    10    11 ar  
    29    10    13 ar  
    30    11    33 1   
    31    12    34 1   
    32    13    21 1   
    33    14    15 1   
    34    14    16 1   
    35    14    17 1   
    36    14    38 1   
    37    19    35 1   
    38    21    36 1   
    39    21    38 1   
    40    24    38 2   
@<TRIPOS>SUBSTRUCTURE
     1 IWV         1 TEMP              0 ****  ****    0 ROOT
