@<TRIPOS>MOLECULE
IWV
   38    40     1     0     0
SMALL
No Charge or Current Charge


@<TRIPOS>ATOM
      1 C10          1.8470     4.4510     4.5650 c3         1 IWV       0.127900
      2 C13         -0.7450     5.1060     7.3340 ca         1 IWV      -0.101000
      3 C15         -0.3480     7.2010     6.1770 ca         1 IWV      -0.119000
      4 C24          0.4970     2.6090     3.3640 cc         1 IWV       0.405700
      5 C02          3.3380     0.5780     6.1150 ca         1 IWV       0.283000
      6 C04          1.8170    -0.3970     4.7060 ca         1 IWV       0.455900
      7 C06          1.5070    -2.9430     4.5030 c3         1 IWV       0.223100
      8 C07          1.4230     0.8920     4.2900 ca         1 IWV      -0.104600
      9 C08          2.0540     1.9760     4.8490 ca         1 IWV       0.130500
     10 C11          0.8760     5.1930     5.4960 ca         1 IWV      -0.088300
     11 C12          0.1950     4.4730     6.5050 ca         1 IWV      -0.080000
     12 C14         -1.0240     6.4680     7.1640 ca         1 IWV      -0.092000
     13 C16          0.6170     6.5850     5.3570 ca         1 IWV      -0.053000
     14 C19          2.9070     8.5570     2.9520 c3         1 IWV       0.208000
     15 F20          2.3420     8.1320     1.7960 f          1 IWV      -0.099667
     16 F21          4.2360     8.6930     2.7220 f          1 IWV      -0.099667
     17 F22          2.4160     9.7920     3.2120 f          1 IWV      -0.099667
     18 N03          2.7850    -0.5570     5.6290 nb         1 IWV      -0.283000
     19 N05          1.2170    -1.5340     4.1770 nu         1 IWV      -0.909100
     20 N09          1.4640     3.0590     4.2640 na         1 IWV      -0.282300
     21 N17          1.2630     7.4090     4.3970 ns         1 IWV      -0.151000
     22 N25          0.4450     1.2630     3.3560 nd         1 IWV      -0.549100
     23 N26          3.0230     1.8500     5.7750 nb         1 IWV      -0.198000
     24 O23          3.4970     7.0010     4.7480 o          1 IWV      -0.515100
     25 H101         2.8460     4.4570     5.0180 h1         1 IWV       0.089700
     26 H102         1.9210     4.9800     3.6070 h1         1 IWV       0.089700
     27 H131        -1.2640     4.5360     8.1020 ha         1 IWV       0.124000
     28 H151        -0.5640     8.2610     6.0610 ha         1 IWV       0.121000
     29 H241        -0.1100     3.2840     2.7720 h5         1 IWV       0.069800
     30 H061         0.8650    -3.6150     3.9180 h1         1 IWV       0.048700
     31 H063         2.5550    -3.1840     4.2780 h1         1 IWV       0.048700
     32 H062         1.3280    -3.1370     5.5700 h1         1 IWV       0.048700
     33 H121         0.3840     3.4120     6.6510 ha         1 IWV       0.130000
     34 H141        -1.7590     6.9580     7.8000 ha         1 IWV       0.123000
     35 H051         0.4910    -1.3350     3.4840 hn         1 IWV       0.517000
     36 H171         0.6390     7.9880     3.8490 hn         1 IWV       0.174000
     37 Cl01         4.6000     0.3800     7.3210 cl         1 IWV      -0.142000
     38 C18          2.6140     7.5750     4.1160 c          1 IWV       0.548100
@<TRIPOS>BOND
     1     1    10 1   
     2     1    20 1   
     3     1    25 1   
     4     1    26 1   
     5     2    11 ar  
     6     2    12 ar  
     7     2    27 1   
     8     3    12 ar  
     9     3    13 ar  
    10     3    28 1   
    11     4    20 1   
    12     4    22 2   
    13     4    29 1   
    14     5    18 ar  
    15     5    23 ar  
    16     5    37 1   
    17     6     8 ar  
    18     6    18 ar  
    19     6    19 1   
    20     7    19 1   
    21     7    30 1   
    22     7    31 1   
    23     7    32 1   
    24     8     9 ar  
    25     8    22 1   
    26     9    20 1   
    27     9    23 ar  
    28    10    11 ar  
    29    10    13 ar  
    30    11    33 1   
    31    12    34 1   
    32    13    21 1   
    33    14    15 1   
    34    14    16 1   
    35    14    17 1   
    36    14    38 1   
    37    19    35 1   
    38    21    36 1   
    39    21    38 1   
    40    24    38 2   
@<TRIPOS>SUBSTRUCTURE
     1 IWV         1 TEMP              0 ****  ****    0 ROOT
