@<TRIPOS>MOLECULE
IWX
   42    44     1     0     0
SMALL
bcc


@<TRIPOS>ATOM
      1 O1           1.6360    -0.7480     1.2030 o          1 IWX      -0.579100
      2 C2           2.2320    -0.0010     0.4480 c          1 IWX       0.669100
      3 N3           1.6650     1.1050    -0.0940 ns         1 IWX      -0.495100
      4 C4           0.3360     1.5160     0.1370 ca         1 IWX      -0.013400
      5 C5          -0.7280     0.6720    -0.1410 ca         1 IWX      -0.070000
      6 C6          -2.0480     1.0650     0.0710 cp         1 IWX      -0.066000
      7 C7          -2.2660     2.3580     0.5510 ca         1 IWX      -0.081000
      8 C8          -1.2150     3.2120     0.8230 ca         1 IWX      -0.189000
      9 C9           0.1120     2.8090     0.6370 ca         1 IWX       0.139600
     10 N10          1.1630     3.6630     0.8770 nv         1 IWX      -0.824200
     11 C11         -3.1670     0.1450    -0.2030 cp         1 IWX      -0.039000
     12 C12         -4.3930     0.6180    -0.6780 ca         1 IWX      -0.096000
     13 C13         -5.4500    -0.2410    -0.9320 ca         1 IWX      -0.170000
     14 C14         -5.2730    -1.5940    -0.7130 ca         1 IWX       0.133900
     15 F15         -6.2920    -2.4340    -0.9600 f          1 IWX      -0.144900
     16 C16         -4.0790    -2.1050    -0.2470 ca         1 IWX      -0.170000
     17 C17         -3.0350    -1.2290     0.0090 ca         1 IWX      -0.096000
     18 C18          3.6600    -0.2560     0.0090 c6         1 IWX      -0.142700
     19 C19          4.5390    -0.7130     1.1700 c6         1 IWX      -0.105400
     20 C20          5.9240    -1.0770     0.6610 c6         1 IWX       0.130900
     21 O21          5.8770    -2.0660    -0.3450 os         1 IWX      -0.398600
     22 C22          5.1220    -1.6530    -1.4620 c6         1 IWX       0.130900
     23 C23          3.6840    -1.3240    -1.0920 c6         1 IWX      -0.105400
     24 H1           2.2390     1.6880    -0.6860 hn         1 IWX       0.322500
     25 H2          -0.5140    -0.3040    -0.5570 ha         1 IWX       0.145000
     26 H3          -3.2750     2.7010     0.7440 ha         1 IWX       0.133000
     27 H4          -1.4190     4.2020     1.2120 ha         1 IWX       0.133000
     28 H5           0.9470     4.4580     1.4560 hn         1 IWX       0.395300
     29 H6           2.0300     3.2280     1.1510 hn         1 IWX       0.395300
     30 H7          -4.5280     1.6750    -0.8710 ha         1 IWX       0.139000
     31 H8          -6.3930     0.1370    -1.3040 ha         1 IWX       0.149000
     32 H9          -3.9640    -3.1670    -0.0730 ha         1 IWX       0.149000
     33 H10         -2.1080    -1.6290     0.4010 ha         1 IWX       0.139000
     34 H11          4.0830     0.6670    -0.4050 hc         1 IWX       0.048700
     35 H12          4.6310     0.0740     1.9220 hc         1 IWX       0.062950
     36 H13          4.0880    -1.5800     1.6600 hc         1 IWX       0.062950
     37 H14          6.4280    -0.1730     0.2850 h1         1 IWX       0.044950
     38 H15          6.5350    -1.4770     1.4710 h1         1 IWX       0.044950
     39 H16          5.5870    -0.7740    -1.9350 h1         1 IWX       0.044950
     40 H17          5.1520    -2.4670    -2.1880 h1         1 IWX       0.044950
     41 H18          3.1760    -2.2270    -0.7430 hc         1 IWX       0.062950
     42 H19          3.1560    -0.9760    -1.9830 hc         1 IWX       0.062950
@<TRIPOS>BOND
     1     1     2 2   
     2     2     3 1   
     3     2    18 1   
     4     3     4 1   
     5     3    24 1   
     6     4     5 ar  
     7     4     9 ar  
     8     5     6 ar  
     9     5    25 1   
    10     6     7 ar  
    11     6    11 1   
    12     7     8 ar  
    13     7    26 1   
    14     8     9 ar  
    15     8    27 1   
    16     9    10 1   
    17    10    28 1   
    18    10    29 1   
    19    11    12 ar  
    20    11    17 ar  
    21    12    13 ar  
    22    12    30 1   
    23    13    14 ar  
    24    13    31 1   
    25    14    15 1   
    26    14    16 ar  
    27    16    17 ar  
    28    16    32 1   
    29    17    33 1   
    30    18    19 1   
    31    18    23 1   
    32    18    34 1   
    33    19    20 1   
    34    19    35 1   
    35    19    36 1   
    36    20    21 1   
    37    20    37 1   
    38    20    38 1   
    39    21    22 1   
    40    22    23 1   
    41    22    39 1   
    42    22    40 1   
    43    23    41 1   
    44    23    42 1   
@<TRIPOS>SUBSTRUCTURE
     1 IWX         1 TEMP              0 ****  ****    0 ROOT
