@<TRIPOS>MOLECULE
IWX
   42    44     1     0     0
SMALL
No Charge or Current Charge


@<TRIPOS>ATOM
      1 O1           1.4990    -1.3520     0.5020 o          1 IWX      -0.579100
      2 C2           2.1650    -0.3630     0.2150 c          1 IWX       0.602100
      3 N3           1.6440     0.9230     0.1340 ns         1 IWX      -0.169000
      4 C4           0.3100     1.4170     0.2570 ca         1 IWX      -0.106000
      5 C5          -0.8090     0.5810     0.0350 ca         1 IWX      -0.052000
      6 C6          -2.1350     1.0720     0.1260 cp         1 IWX      -0.066000
      7 C7          -2.3150     2.4410     0.4380 ca         1 IWX      -0.063000
      8 C8          -1.2110     3.2820     0.6500 ca         1 IWX      -0.171000
      9 C9           0.0940     2.7810     0.5620 ca         1 IWX       0.278000
     10 N10          1.1410     3.6390     0.7940 nv         1 IWX      -1.073000
     11 C11         -3.3100     0.1730    -0.1090 cp         1 IWX      -0.039000
     12 C12         -4.4810     0.6520    -0.7520 ca         1 IWX      -0.078000
     13 C13         -5.5840    -0.1930    -0.9730 ca         1 IWX      -0.152000
     14 C14         -5.5340    -1.5300    -0.5550 ca         1 IWX       0.169000
     15 F15         -6.5920    -2.3420    -0.7680 f          1 IWX      -0.180000
     16 C16         -4.3890    -2.0290     0.0820 ca         1 IWX      -0.152000
     17 C17         -3.2860    -1.1850     0.3030 ca         1 IWX      -0.078000
     18 C18          3.6830    -0.4780    -0.0670 c6         1 IWX      -0.142700
     19 C19          4.5160    -0.9240     1.1670 c6         1 IWX      -0.105400
     20 C20          6.0180    -1.0280     0.8020 c6         1 IWX       0.154100
     21 O21          6.1900    -1.8740    -0.3570 os         1 IWX      -0.445000
     22 C22          5.5520    -1.3740    -1.5540 c6         1 IWX       0.154100
     23 C23          4.0200    -1.2930    -1.3460 c6         1 IWX      -0.105400
     24 H1           2.3290     1.6350    -0.0820 hn         1 IWX       0.156000
     25 H2          -0.6630    -0.4580    -0.2450 ha         1 IWX       0.127000
     26 H3          -3.3170     2.8530     0.5280 ha         1 IWX       0.115000
     27 H4          -1.3780     4.3280     0.8900 ha         1 IWX       0.115000
     28 H5           0.9410     4.5750     1.1430 hn         1 IWX       0.450500
     29 H6           2.0590     3.2630     1.0160 hn         1 IWX       0.450500
     30 H7          -4.5320     1.6830    -1.0940 ha         1 IWX       0.121000
     31 H8          -6.4730     0.1860    -1.4700 ha         1 IWX       0.131000
     32 H9          -4.3580    -3.0660     0.4060 ha         1 IWX       0.131000
     33 H10         -2.4110    -1.5840     0.8110 ha         1 IWX       0.121000
     34 H11          4.0130     0.5480    -0.2840 hc         1 IWX       0.048700
     35 H12          4.3820    -0.2180     1.9980 hc         1 IWX       0.062950
     36 H13          4.1640    -1.9020     1.5240 hc         1 IWX       0.062950
     37 H14          6.4280    -0.0300     0.5870 h1         1 IWX       0.044950
     38 H15          6.5810    -1.4540     1.6450 h1         1 IWX       0.044950
     39 H16          5.9580    -0.3800    -1.7920 h1         1 IWX       0.044950
     40 H17          5.7830    -2.0470    -2.3920 h1         1 IWX       0.044950
     41 H18          3.6130    -2.3110    -1.2610 hc         1 IWX       0.062950
     42 H19          3.5470    -0.8390    -2.2280 hc         1 IWX       0.062950
@<TRIPOS>BOND
     1     1     2 2   
     2     2     3 1   
     3     2    18 1   
     4     3     4 1   
     5     3    24 1   
     6     4     5 ar  
     7     4     9 ar  
     8     5     6 ar  
     9     5    25 1   
    10     6     7 ar  
    11     6    11 1   
    12     7     8 ar  
    13     7    26 1   
    14     8     9 ar  
    15     8    27 1   
    16     9    10 1   
    17    10    28 1   
    18    10    29 1   
    19    11    12 ar  
    20    11    17 ar  
    21    12    13 ar  
    22    12    30 1   
    23    13    14 ar  
    24    13    31 1   
    25    14    15 1   
    26    14    16 ar  
    27    16    17 ar  
    28    16    32 1   
    29    17    33 1   
    30    18    19 1   
    31    18    23 1   
    32    18    34 1   
    33    19    20 1   
    34    19    35 1   
    35    19    36 1   
    36    20    21 1   
    37    20    37 1   
    38    20    38 1   
    39    21    22 1   
    40    22    23 1   
    41    22    39 1   
    42    22    40 1   
    43    23    41 1   
    44    23    42 1   
@<TRIPOS>SUBSTRUCTURE
     1 IWX         1 TEMP              0 ****  ****    0 ROOT
