@<TRIPOS>MOLECULE
IWY
   34    34     1     0     0
SMALL
abcg2


@<TRIPOS>ATOM
      1 N3          90.5140    -8.4900    16.7120 na         1 IWY       0.178800
      2 C5          91.0210    -9.9140    15.2380 cc         1 IWY       0.291900
      3 C6          91.7220    -6.4040    16.1840 c          1 IWY       0.623700
      4 C7          92.7080    -8.6580    13.8230 c          1 IWY       0.659700
      5 C13         93.2390    -4.5550    15.7230 c3         1 IWY       0.107000
      6 C15         92.4930    -3.6210    14.7730 c3         1 IWY      -0.101400
      7 C17         92.6870    -3.9720    13.3050 c3         1 IWY      -0.090100
      8 C1          91.3970    -7.8420    15.9250 cd         1 IWY      -0.133600
      9 C2          91.7630    -8.7610    14.9350 cc         1 IWY      -0.264600
     10 N4          90.2880    -9.7360    16.3100 nd         1 IWY      -0.524800
     11 O8          90.9890    -5.7290    16.8950 o          1 IWY      -0.621100
     12 O9          93.5200    -7.7690    13.6610 o          1 IWY      -0.530000
     13 N10         92.8360    -5.9430    15.6170 ns         1 IWY      -0.486900
     14 O11         92.5920    -9.6840    13.0020 os         1 IWY      -0.436100
     15 C12         89.8180    -8.0430    17.9060 c3         1 IWY       0.072900
     16 C14         93.4980    -9.7760    11.8890 c3         1 IWY       0.169600
     17 C16         93.1570   -11.0310    11.1240 c3         1 IWY      -0.098100
     18 H1          91.0120   -10.8600    14.7190 h4         1 IWY       0.054100
     19 H2          93.1110    -4.2210    16.7530 h1         1 IWY       0.053200
     20 H3          94.3080    -4.5200    15.5080 h1         1 IWY       0.053200
     21 H4          91.4300    -3.6210    15.0220 hc         1 IWY       0.050700
     22 H5          92.8520    -2.6060    14.9610 hc         1 IWY       0.050700
     23 H6          92.1630    -3.2640    12.6620 hc         1 IWY       0.034367
     24 H7          93.7430    -3.9510    13.0270 hc         1 IWY       0.034367
     25 H8          92.3030    -4.9660    13.0740 hc         1 IWY       0.034367
     26 H9          93.3330    -6.5410    14.9630 hn         1 IWY       0.362500
     27 H10         89.3830    -8.9270    18.3590 h1         1 IWY       0.070033
     28 H11         90.5050    -7.5810    18.6080 h1         1 IWY       0.070033
     29 H12         89.0290    -7.3380    17.6590 h1         1 IWY       0.070033
     30 H13         93.3920    -8.8920    11.2570 h1         1 IWY       0.050200
     31 H14         94.5250    -9.8070    12.2570 h1         1 IWY       0.050200
     32 H15         93.8340   -11.1230    10.2750 hc         1 IWY       0.049033
     33 H16         93.2730   -11.9220    11.7410 hc         1 IWY       0.049033
     34 H17         92.1380   -11.0040    10.7380 hc         1 IWY       0.049033
@<TRIPOS>BOND
     1     1     8 1   
     2     1    10 1   
     3     1    15 1   
     4     2     9 1   
     5     2    10 2   
     6     2    18 1   
     7     3     8 1   
     8     3    11 2   
     9     3    13 1   
    10     4     9 1   
    11     4    12 2   
    12     4    14 1   
    13     5     6 1   
    14     5    13 1   
    15     5    19 1   
    16     5    20 1   
    17     6     7 1   
    18     6    21 1   
    19     6    22 1   
    20     7    23 1   
    21     7    24 1   
    22     7    25 1   
    23     8     9 2   
    24    13    26 1   
    25    14    16 1   
    26    15    27 1   
    27    15    28 1   
    28    15    29 1   
    29    16    17 1   
    30    16    30 1   
    31    16    31 1   
    32    17    32 1   
    33    17    33 1   
    34    17    34 1   
@<TRIPOS>SUBSTRUCTURE
     1 IWY         1 TEMP              0 ****  ****    0 ROOT
