@<TRIPOS>MOLECULE
IWY
   34    34     1     0     0
SMALL
No Charge or Current Charge


@<TRIPOS>ATOM
      1 N3          90.3920    -8.4990    16.6360 na         1 IWY       0.178800
      2 C5          90.9220    -9.8500    15.1110 cc         1 IWY       0.291900
      3 C6          91.8990    -6.4390    16.2480 c          1 IWY       0.623700
      4 C7          92.7040    -8.6860    13.7840 c          1 IWY       0.659700
      5 C13         93.4720    -4.5920    15.5750 c3         1 IWY       0.107000
      6 C15         92.5730    -3.5020    14.9520 c3         1 IWY      -0.101400
      7 C17         92.3050    -3.6990    13.4450 c3         1 IWY      -0.090100
      8 C1          91.3970    -7.8200    15.9140 cd         1 IWY      -0.133600
      9 C2          91.7340    -8.7250    14.9090 cc         1 IWY      -0.264600
     10 N4          90.1050    -9.7570    16.1330 nd         1 IWY      -0.524800
     11 O8          91.4590    -5.7820    17.1810 o          1 IWY      -0.621100
     12 O9          93.4430    -7.7490    13.5290 o          1 IWY      -0.530000
     13 N10         92.8960    -5.9340    15.4570 ns         1 IWY      -0.486900
     14 O11         92.6940    -9.8290    13.0300 os         1 IWY      -0.436100
     15 C12         89.6600    -8.0150    17.8180 c3         1 IWY       0.072900
     16 C14         93.5870    -9.9160    11.9070 c3         1 IWY       0.169600
     17 C16         93.3660   -11.2880    11.2500 c3         1 IWY      -0.098100
     18 H1          90.9000   -10.7600    14.5260 h4         1 IWY       0.054100
     19 H2          93.6420    -4.3660    16.6360 h1         1 IWY       0.053200
     20 H3          94.4490    -4.5890    15.0730 h1         1 IWY       0.053200
     21 H4          91.6170    -3.4680    15.4880 hc         1 IWY       0.050700
     22 H5          93.0520    -2.5270    15.1030 hc         1 IWY       0.050700
     23 H6          91.7020    -2.8710    13.0540 hc         1 IWY       0.034367
     24 H7          93.2470    -3.7310    12.8840 hc         1 IWY       0.034367
     25 H8          91.7600    -4.6320    13.2610 hc         1 IWY       0.034367
     26 H9          93.2190    -6.5270    14.7030 hn         1 IWY       0.362500
     27 H10         88.9450    -8.7740    18.1550 h1         1 IWY       0.070033
     28 H11         90.3690    -7.8060    18.6280 h1         1 IWY       0.070033
     29 H12         89.1150    -7.0990    17.5620 h1         1 IWY       0.070033
     30 H13         93.3780    -9.1230    11.1770 h1         1 IWY       0.050200
     31 H14         94.6330    -9.8280    12.2290 h1         1 IWY       0.050200
     32 H15         94.0280   -11.4040    10.3830 hc         1 IWY       0.049033
     33 H16         93.5830   -12.0950    11.9590 hc         1 IWY       0.049033
     34 H17         92.3300   -11.3900    10.9080 hc         1 IWY       0.049033
@<TRIPOS>BOND
     1     1     8 1   
     2     1    10 1   
     3     1    15 1   
     4     2     9 1   
     5     2    10 2   
     6     2    18 1   
     7     3     8 1   
     8     3    11 2   
     9     3    13 1   
    10     4     9 1   
    11     4    12 2   
    12     4    14 1   
    13     5     6 1   
    14     5    13 1   
    15     5    19 1   
    16     5    20 1   
    17     6     7 1   
    18     6    21 1   
    19     6    22 1   
    20     7    23 1   
    21     7    24 1   
    22     7    25 1   
    23     8     9 2   
    24    13    26 1   
    25    14    16 1   
    26    15    27 1   
    27    15    28 1   
    28    15    29 1   
    29    16    17 1   
    30    16    30 1   
    31    16    31 1   
    32    17    32 1   
    33    17    33 1   
    34    17    34 1   
@<TRIPOS>SUBSTRUCTURE
     1 IWY         1 TEMP              0 ****  ****    0 ROOT
