@<TRIPOS>MOLECULE
IX0
   72    76     1     0     0
SMALL
abcg2


@<TRIPOS>ATOM
      1 CAD         19.1380     5.2260    38.6280 c3         1 IX0      -0.075400
      2 CAC         19.6050     5.8320    37.3430 c2         1 IX0       0.007600
      3 CAG         19.3440     5.0010    36.1200 c3         1 IX0      -0.075400
      4 CAB         20.2080     7.0310    37.3600 ce         1 IX0      -0.337200
      5 CAA         20.7290     7.7440    36.1890 c          1 IX0       0.635300
      6 OAE         20.7400     7.2790    35.0470 o          1 IX0      -0.649100
      7 NAF         21.2180     8.9760    36.4630 ns         1 IX0      -0.160000
      8 CAH         21.7890     9.8400    35.5030 ca         1 IX0      -0.050000
      9 CAM         21.1690    11.0500    35.2140 ca         1 IX0      -0.115500
     10 CAL         21.7410    11.9250    34.3060 ca         1 IX0      -0.084500
     11 CAI         22.9830     9.5120    34.8710 ca         1 IX0      -0.115500
     12 CAJ         23.5430    10.3840    33.9510 ca         1 IX0      -0.084500
     13 CAK         22.9380    11.6070    33.6620 ca         1 IX0      -0.033800
     14 CAO         23.5210    12.5270    32.6840 ce         1 IX0      -0.095400
     15 CAP         23.6770    13.8610    32.7220 cf         1 IX0      -0.060400
     16 CBK         23.4710    14.8280    33.7910 ca         1 IX0      -0.078800
     17 CBL         23.6490    14.4900    35.1360 ca         1 IX0      -0.053500
     18 CBM         23.4580    15.4180    36.1420 ca         1 IX0      -0.179000
     19 CBN         23.0800    16.7240    35.8310 ca         1 IX0       0.148100
     20 OBQ         22.8780    17.6690    36.7660 oh         1 IX0      -0.529100
     21 CBO         22.9100    17.0820    34.4950 ca         1 IX0      -0.179000
     22 CBP         23.1120    16.1460    33.4970 ca         1 IX0      -0.053500
     23 CAQ         24.0380    14.2440    31.2960 c5         1 IX0       0.180500
     24 CAR         22.7400    14.1200    30.4570 c5         1 IX0      -0.082400
     25 OAT         24.7730    13.1180    30.8560 os         1 IX0      -0.399000
     26 CAN         23.8360    12.1440    31.2440 c5         1 IX0       0.227500
     27 CAS         22.5600    12.5850    30.4690 c5         1 IX0      -0.324700
     28 SAU         22.4450    12.0070    28.7740 s6         1 IX0       1.191100
     29 OAV         23.6390    12.3480    28.0150 o          1 IX0      -0.525000
     30 OAW         21.1670    12.4830    28.2550 o          1 IX0      -0.525000
     31 NAX         22.4590    10.3410    28.9360 nh         1 IX0      -0.760300
     32 CAY         22.7350     9.5940    27.7190 c3         1 IX0       0.151800
     33 CAZ         24.0680     8.8810    27.8050 c3         1 IX0       0.294000
     34 FBB         25.0720     9.7070    28.1050 f          1 IX0      -0.111000
     35 FBC         24.3640     8.2970    26.6360 f          1 IX0      -0.111000
     36 FBA         24.0690     7.9160    28.7350 f          1 IX0      -0.111000
     37 CBD         21.6130     9.7540    29.9270 ca         1 IX0       0.157000
     38 CBE         22.2030     9.0820    30.9900 ca         1 IX0      -0.060000
     39 CBF         21.4330     8.5140    31.9860 ca         1 IX0      -0.182000
     40 CBG         20.0440     8.6320    31.9520 ca         1 IX0       0.182100
     41 OBJ         19.2590     8.1370    32.9160 oh         1 IX0      -0.554100
     42 CBH         19.4460     9.2880    30.8720 ca         1 IX0      -0.182000
     43 CBI         20.2240     9.8340    29.8670 ca         1 IX0      -0.060000
     44 H1          19.3680     5.8430    39.4950 hc         1 IX0       0.055700
     45 H2          18.0590     5.0590    38.5940 hc         1 IX0       0.055700
     46 H3          19.5950     4.2440    38.7690 hc         1 IX0       0.055700
     47 H4          18.7330     4.1360    36.3740 hc         1 IX0       0.055700
     48 H5          18.8330     5.5640    35.3420 hc         1 IX0       0.055700
     49 H6          20.2750     4.6350    35.6870 hc         1 IX0       0.055700
     50 H7          20.3300     7.5270    38.3170 ha         1 IX0       0.178000
     51 H8          21.0760     9.3480    37.3910 hn         1 IX0       0.160000
     52 H9          20.2330    11.3030    35.6960 ha         1 IX0       0.124500
     53 H10         21.2460    12.8610    34.0830 ha         1 IX0       0.125000
     54 H11         23.4780     8.5780    35.1020 ha         1 IX0       0.124500
     55 H12         24.4700    10.1140    33.4610 ha         1 IX0       0.125000
     56 H15         23.9600    13.4890    35.4050 ha         1 IX0       0.118500
     57 H16         23.6130    15.1280    37.1760 ha         1 IX0       0.123000
     58 H17         23.0310    17.3120    37.6490 ho         1 IX0       0.467000
     59 H18         22.6230    18.0950    34.2420 ha         1 IX0       0.123000
     60 H19         22.9710    16.4560    32.4690 ha         1 IX0       0.118500
     61 H20         24.5950    15.1680    31.1540 h1         1 IX0       0.108700
     62 H21         22.9010    14.5310    29.4590 hc         1 IX0       0.072200
     63 H22         21.8890    14.6360    30.8950 hc         1 IX0       0.072200
     64 H23         24.1930    11.1330    31.0590 h1         1 IX0       0.116700
     65 H24         21.6390    12.2650    30.9580 h1         1 IX0       0.120700
     66 H25         22.7520    10.2390    26.8390 h1         1 IX0       0.089700
     67 H26         21.9480     8.8570    27.5470 h1         1 IX0       0.089700
     68 H27         23.2800     9.0020    31.0480 ha         1 IX0       0.128500
     69 H28         21.9160     7.9980    32.8040 ha         1 IX0       0.135000
     70 H29         19.8000     7.8070    33.6640 ho         1 IX0       0.511000
     71 H30         18.3670     9.3730    30.8280 ha         1 IX0       0.135000
     72 H31         19.7420    10.3350    29.0380 ha         1 IX0       0.128500
@<TRIPOS>BOND
     1     1     2 1   
     2     1    44 1   
     3     1    45 1   
     4     1    46 1   
     5     2     3 1   
     6     2     4 2   
     7     3    47 1   
     8     3    48 1   
     9     3    49 1   
    10     4     5 1   
    11     4    50 1   
    12     5     6 2   
    13     5     7 1   
    14     7     8 1   
    15     7    51 1   
    16     8     9 ar  
    17     8    11 ar  
    18     9    10 ar  
    19     9    52 1   
    20    10    13 ar  
    21    10    53 1   
    22    11    12 ar  
    23    11    54 1   
    24    12    13 ar  
    25    12    55 1   
    26    13    14 1   
    27    14    15 2   
    28    14    26 1   
    29    15    16 1   
    30    15    23 1   
    31    16    17 ar  
    32    16    22 ar  
    33    17    18 ar  
    34    17    56 1   
    35    18    19 ar  
    36    18    57 1   
    37    19    20 1   
    38    19    21 ar  
    39    20    58 1   
    40    21    22 ar  
    41    21    59 1   
    42    22    60 1   
    43    23    24 1   
    44    23    25 1   
    45    23    61 1   
    46    24    27 1   
    47    24    62 1   
    48    24    63 1   
    49    25    26 1   
    50    26    27 1   
    51    26    64 1   
    52    27    28 1   
    53    27    65 1   
    54    28    29 2   
    55    28    30 2   
    56    28    31 1   
    57    31    32 1   
    58    31    37 1   
    59    32    33 1   
    60    32    66 1   
    61    32    67 1   
    62    33    34 1   
    63    33    35 1   
    64    33    36 1   
    65    37    38 ar  
    66    37    43 ar  
    67    38    39 ar  
    68    38    68 1   
    69    39    40 ar  
    70    39    69 1   
    71    40    41 1   
    72    40    42 ar  
    73    41    70 1   
    74    42    43 ar  
    75    42    71 1   
    76    43    72 1   
@<TRIPOS>SUBSTRUCTURE
     1 IX0         1 TEMP              0 ****  ****    0 ROOT
