@<TRIPOS>MOLECULE
IX0
   72    76     1     0     0
SMALL
No Charge or Current Charge


@<TRIPOS>ATOM
      1 CAD         19.0030     5.2120    38.6910 c3         1 IX0      -0.075400
      2 CAC         19.5300     5.7750    37.3840 c2         1 IX0       0.007600
      3 CAG         19.0860     4.9590    36.1800 c3         1 IX0      -0.075400
      4 CAB         20.3150     6.8800    37.3390 ce         1 IX0      -0.337200
      5 CAA         20.8550     7.5410    36.1150 c          1 IX0       0.635300
      6 OAE         20.9460     6.9800    35.0270 o          1 IX0      -0.649100
      7 NAF         21.1400     8.8840    36.2860 ns         1 IX0      -0.160000
      8 CAH         21.7250     9.8030    35.3820 ca         1 IX0      -0.050000
      9 CAM         21.2460    11.1230    35.3400 ca         1 IX0      -0.115500
     10 CAL         21.7760    12.0380    34.4150 ca         1 IX0      -0.084500
     11 CAI         22.7740     9.4210    34.5250 ca         1 IX0      -0.115500
     12 CAJ         23.3180    10.3430    33.6130 ca         1 IX0      -0.084500
     13 CAK         22.8150    11.6550    33.5450 ca         1 IX0      -0.033800
     14 CAO         23.3190    12.6120    32.5220 ce         1 IX0      -0.095400
     15 CAP         23.4840    13.9690    32.5850 cf         1 IX0      -0.060400
     16 CBK         23.4160    14.9370    33.6990 ca         1 IX0      -0.078800
     17 CBL         23.7130    14.5360    35.0180 ca         1 IX0      -0.053500
     18 CBM         23.6550    15.4600    36.0760 ca         1 IX0      -0.179000
     19 CBN         23.3060    16.7950    35.8230 ca         1 IX0       0.148100
     20 OBQ         23.2480    17.6970    36.8420 oh         1 IX0      -0.529100
     21 CBO         23.0200    17.2070    34.5140 ca         1 IX0      -0.179000
     22 CBP         23.0770    16.2840    33.4550 ca         1 IX0      -0.053500
     23 CAQ         23.8420    14.3640    31.1370 c5         1 IX0       0.180500
     24 CAR         22.5150    14.2610    30.3190 c5         1 IX0      -0.082400
     25 OAT         24.5430    13.2180    30.6720 os         1 IX0      -0.399000
     26 CAN         23.5990    12.2200    31.0610 c5         1 IX0       0.227500
     27 CAS         22.2980    12.6910    30.3470 c5         1 IX0      -0.324700
     28 SAU         22.2530    12.0240    28.5980 s6         1 IX0       1.191100
     29 OAV         23.4590    12.3920    27.8500 o          1 IX0      -0.525000
     30 OAW         20.9290    12.2080    27.9950 o          1 IX0      -0.525000
     31 NAX         22.4060    10.3370    29.0310 nh         1 IX0      -0.760300
     32 CAY         23.0770     9.4770    28.0070 c3         1 IX0       0.151800
     33 CAZ         24.6040     9.1960    28.1730 c3         1 IX0       0.294000
     34 FBB         25.2370    10.1670    28.8720 f          1 IX0      -0.111000
     35 FBC         25.2030     9.1070    26.9630 f          1 IX0      -0.111000
     36 FBA         24.8160     8.0240    28.8150 f          1 IX0      -0.111000
     37 CBD         21.6060     9.7250    30.0320 ca         1 IX0       0.157000
     38 CBE         22.1970     8.7530    30.8660 ca         1 IX0      -0.060000
     39 CBF         21.4560     8.1070    31.8710 ca         1 IX0      -0.182000
     40 CBG         20.1090     8.4320    32.0630 ca         1 IX0       0.182100
     41 OBJ         19.3930     7.8260    33.0480 oh         1 IX0      -0.554100
     42 CBH         19.4960     9.3810    31.2340 ca         1 IX0      -0.182000
     43 CBI         20.2370    10.0220    30.2220 ca         1 IX0      -0.060000
     44 H1          19.3580     5.7860    39.5550 hc         1 IX0       0.055700
     45 H2          17.9070     5.2280    38.7150 hc         1 IX0       0.055700
     46 H3          19.3270     4.1740    38.8330 hc         1 IX0       0.055700
     47 H4          18.3010     4.2360    36.4350 hc         1 IX0       0.055700
     48 H5          18.6800     5.6030    35.3920 hc         1 IX0       0.055700
     49 H6          19.9270     4.3960    35.7580 hc         1 IX0       0.055700
     50 H7          20.5220     7.4160    38.2640 ha         1 IX0       0.178000
     51 H8          20.9160     9.2610    37.1970 hn         1 IX0       0.160000
     52 H9          20.4370    11.4330    35.9990 ha         1 IX0       0.124500
     53 H10         21.3630    13.0420    34.3620 ha         1 IX0       0.125000
     54 H11         23.1710     8.4090    34.5580 ha         1 IX0       0.124500
     55 H12         24.1210    10.0300    32.9510 ha         1 IX0       0.125000
     56 H15         24.0030    13.5090    35.2250 ha         1 IX0       0.118500
     57 H16         23.8870    15.1320    37.0870 ha         1 IX0       0.123000
     58 H17         23.4780    17.2370    37.6770 ho         1 IX0       0.467000
     59 H18         22.7520    18.2420    34.3180 ha         1 IX0       0.123000
     60 H19         22.8460    16.6200    32.4470 ha         1 IX0       0.118500
     61 H20         24.4200    15.2920    31.0180 h1         1 IX0       0.108700
     62 H21         22.6400    14.6690    29.3090 hc         1 IX0       0.072200
     63 H22         21.6920    14.8090    30.7930 hc         1 IX0       0.072200
     64 H23         23.9510    11.1940    30.8870 h1         1 IX0       0.116700
     65 H24         21.3810    12.3720    30.8510 h1         1 IX0       0.120700
     66 H25         22.9210     9.9030    27.0070 h1         1 IX0       0.089700
     67 H26         22.5690     8.5040    27.9760 h1         1 IX0       0.089700
     68 H27         23.2460     8.5060    30.7490 ha         1 IX0       0.128500
     69 H28         21.9380     7.3640    32.5000 ha         1 IX0       0.135000
     70 H29         20.0380     7.4410    33.7050 ho         1 IX0       0.511000
     71 H30         18.4460     9.6240    31.3750 ha         1 IX0       0.135000
     72 H31         19.7290    10.7390    29.5870 ha         1 IX0       0.128500
@<TRIPOS>BOND
     1     1     2 1   
     2     1    44 1   
     3     1    45 1   
     4     1    46 1   
     5     2     3 1   
     6     2     4 2   
     7     3    47 1   
     8     3    48 1   
     9     3    49 1   
    10     4     5 1   
    11     4    50 1   
    12     5     6 2   
    13     5     7 1   
    14     7     8 1   
    15     7    51 1   
    16     8     9 ar  
    17     8    11 ar  
    18     9    10 ar  
    19     9    52 1   
    20    10    13 ar  
    21    10    53 1   
    22    11    12 ar  
    23    11    54 1   
    24    12    13 ar  
    25    12    55 1   
    26    13    14 1   
    27    14    15 2   
    28    14    26 1   
    29    15    16 1   
    30    15    23 1   
    31    16    17 ar  
    32    16    22 ar  
    33    17    18 ar  
    34    17    56 1   
    35    18    19 ar  
    36    18    57 1   
    37    19    20 1   
    38    19    21 ar  
    39    20    58 1   
    40    21    22 ar  
    41    21    59 1   
    42    22    60 1   
    43    23    24 1   
    44    23    25 1   
    45    23    61 1   
    46    24    27 1   
    47    24    62 1   
    48    24    63 1   
    49    25    26 1   
    50    26    27 1   
    51    26    64 1   
    52    27    28 1   
    53    27    65 1   
    54    28    29 2   
    55    28    30 2   
    56    28    31 1   
    57    31    32 1   
    58    31    37 1   
    59    32    33 1   
    60    32    66 1   
    61    32    67 1   
    62    33    34 1   
    63    33    35 1   
    64    33    36 1   
    65    37    38 ar  
    66    37    43 ar  
    67    38    39 ar  
    68    38    68 1   
    69    39    40 ar  
    70    39    69 1   
    71    40    41 1   
    72    40    42 ar  
    73    41    70 1   
    74    42    43 ar  
    75    42    71 1   
    76    43    72 1   
@<TRIPOS>SUBSTRUCTURE
     1 IX0         1 TEMP              0 ****  ****    0 ROOT
