@<TRIPOS>MOLECULE
IX1
   49    51     1     0     0
SMALL
bcc


@<TRIPOS>ATOM
      1 C1           2.1740    -0.6570     3.0970 ca         1 IX1      -0.100000
      2 C2           0.8440    -0.2440     3.1130 ca         1 IX1      -0.098500
      3 C3           0.0800    -0.3650     1.9520 ca         1 IX1      -0.082000
      4 C4           0.6180    -0.8960     0.7820 ca         1 IX1      -0.079800
      5 C5           1.9490    -1.3240     0.7940 ca         1 IX1      -0.115000
      6 C6           2.7150    -1.2010     1.9400 ca         1 IX1      -0.144000
      7 C7           0.2510     0.3180     4.3230 cc         1 IX1       0.276200
      8 O12         -0.5850     1.3510     4.1540 os         1 IX1      -0.161100
      9 N13         -1.0800     1.7440     5.3600 nc         1 IX1      -0.348300
     10 C14         -0.5400     0.9690     6.2530 cd         1 IX1       0.290800
     11 C15          0.3370     0.0210     5.6470 cd         1 IX1      -0.282900
     12 C16         -0.8370     1.1790     7.7290 c          1 IX1       0.846100
     13 O1          -1.9210     1.7160     8.0000 o          1 IX1      -0.802800
     14 O2           0.0590     0.8050     8.5040 o          1 IX1      -0.802800
     15 C8          -0.2400    -0.9780    -0.4020 ce         1 IX1      -0.055200
     16 C32         -1.0300    -0.4840    -4.9670 ca         1 IX1       0.225100
     17 C33         -2.1850    -1.2050    -5.2520 ca         1 IX1      -0.259000
     18 C34         -2.7460    -1.0940    -6.5180 ca         1 IX1      -0.035000
     19 C35         -2.1890    -0.2910    -7.4970 ca         1 IX1      -0.271000
     20 C36         -1.0320     0.4280    -7.2030 ca         1 IX1       0.208100
     21 C37         -0.4550     0.3310    -5.9430 ca         1 IX1      -0.204600
     22 C38          0.7690     1.1210    -5.6170 c          1 IX1       0.685700
     23 O11          0.7540     2.2260    -5.1390 o          1 IX1      -0.519000
     24 O13          1.8680     0.4540    -5.9190 os         1 IX1      -0.407900
     25 C39          3.1200     1.0950    -5.6620 c3         1 IX1       0.128700
     26 O14         -0.4190     1.2320    -8.0880 oh         1 IX1      -0.486100
     27 O3          -0.3870    -0.4950    -3.7870 os         1 IX1      -0.310900
     28 C40         -0.8270    -1.3910    -2.7700 c3         1 IX1       0.181600
     29 C41          0.1380    -1.2940    -1.6400 c2         1 IX1      -0.200200
     30 C9           1.0420    -1.1030     6.3190 c3         1 IX1       0.225700
     31 O4           0.0670    -1.9970     6.8160 oh         1 IX1      -0.580800
     32 H1           2.7970    -0.5360     3.9730 ha         1 IX1       0.142000
     33 H3          -0.9580    -0.0520     1.9540 ha         1 IX1       0.148000
     34 H5           2.3930    -1.7590    -0.0920 ha         1 IX1       0.121000
     35 H6           3.7470    -1.5250     1.9340 ha         1 IX1       0.124000
     36 H8          -1.2870    -0.7410    -0.2280 ha         1 IX1       0.123000
     37 H33         -2.6550    -1.8420    -4.5170 ha         1 IX1       0.144000
     38 H34         -3.6460    -1.6510    -6.7430 ha         1 IX1       0.129000
     39 H35         -2.6420    -0.2230    -8.4790 ha         1 IX1       0.133000
     40 H391         3.8840     0.3910    -5.9780 h1         1 IX1       0.045367
     41 H392         3.2180     2.0170    -6.2340 h1         1 IX1       0.045367
     42 H393         3.2440     1.3120    -4.6010 h1         1 IX1       0.045367
     43 H14         -0.8910     1.2350    -8.9290 ho         1 IX1       0.429000
     44 H401        -1.8390    -1.1380    -2.4400 h1         1 IX1       0.040200
     45 H402        -0.8470    -2.4140    -3.1630 h1         1 IX1       0.040200
     46 H41          1.1730    -1.5230    -1.8730 ha         1 IX1       0.133000
     47 H91          1.7090    -1.6030     5.6090 h1         1 IX1       0.023200
     48 H92          1.6650    -0.7040     7.1230 h1         1 IX1       0.023200
     49 HO4          0.5000    -2.5820     7.4440 ho         1 IX1       0.389000
@<TRIPOS>BOND
     1     1     2 ar  
     2     1     6 ar  
     3     1    32 1   
     4     2     3 ar  
     5     2     7 1   
     6     3     4 ar  
     7     3    33 1   
     8     4     5 ar  
     9     4    15 1   
    10     5     6 ar  
    11     5    34 1   
    12     6    35 1   
    13     7     8 1   
    14     7    11 2   
    15     8     9 1   
    16     9    10 2   
    17    10    11 1   
    18    10    12 1   
    19    11    30 1   
    20    12    13 1   
    21    12    14 1   
    22    15    29 2   
    23    15    36 1   
    24    16    17 ar  
    25    16    21 ar  
    26    16    27 1   
    27    17    18 ar  
    28    17    37 1   
    29    18    19 ar  
    30    18    38 1   
    31    19    20 ar  
    32    19    39 1   
    33    20    21 ar  
    34    20    26 1   
    35    21    22 1   
    36    22    23 2   
    37    22    24 1   
    38    24    25 1   
    39    25    40 1   
    40    25    41 1   
    41    25    42 1   
    42    26    43 1   
    43    27    28 1   
    44    28    29 1   
    45    28    44 1   
    46    28    45 1   
    47    29    46 1   
    48    30    31 1   
    49    30    47 1   
    50    30    48 1   
    51    31    49 1   
@<TRIPOS>SUBSTRUCTURE
     1 IX1         1 TEMP              0 ****  ****    0 ROOT
