@<TRIPOS>MOLECULE
IX1
   49    51     1     0     0
SMALL
No Charge or Current Charge


@<TRIPOS>ATOM
      1 C1           2.2690    -1.4080     3.0220 ca         1 IX1      -0.082000
      2 C2           1.2830    -0.4580     2.6920 ca         1 IX1      -0.098500
      3 C3           0.6150    -0.5580     1.4560 ca         1 IX1      -0.064000
      4 C4           0.9040    -1.6050     0.5560 ca         1 IX1      -0.079800
      5 C5           1.8800    -2.5600     0.9110 ca         1 IX1      -0.097000
      6 C6           2.5610    -2.4570     2.1360 ca         1 IX1      -0.126000
      7 C7           0.9750     0.6490     3.5950 cc         1 IX1       0.166500
      8 O12          0.9990     1.9490     3.1810 os         1 IX1      -0.116700
      9 N13          0.6130     2.7620     4.2980 nc         1 IX1      -0.348300
     10 C14          0.3550     1.9070     5.2950 cd         1 IX1       0.225500
     11 C15          0.5580     0.5510     4.8890 cd         1 IX1      -0.152300
     12 C16         -0.1020     2.4040     6.6610 c          1 IX1       0.635500
     13 O1          -0.2420     3.6100     6.8410 o          1 IX1      -0.697500
     14 O2          -0.3090     1.6040     7.5660 o          1 IX1      -0.697500
     15 C8           0.1620    -1.6730    -0.7380 ce         1 IX1      -0.105200
     16 C32         -0.8610    -0.8340    -4.8640 ca         1 IX1       0.225100
     17 C33         -1.5300    -1.8070    -5.6380 ca         1 IX1      -0.241000
     18 C34         -2.1540    -1.4450    -6.8420 ca         1 IX1      -0.017000
     19 C35         -2.1140    -0.1120    -7.2740 ca         1 IX1      -0.253000
     20 C36         -1.4530     0.8580    -6.5080 ca         1 IX1       0.208100
     21 C37         -0.8230     0.5010    -5.3050 ca         1 IX1      -0.204600
     22 C38         -0.1210     1.5310    -4.4870 c          1 IX1       0.636700
     23 O11         -0.7070     2.4510    -3.9280 o          1 IX1      -0.470000
     24 O13          1.2300     1.3080    -4.3910 os         1 IX1      -0.431100
     25 C39          2.0090     2.2120    -3.5880 c3         1 IX1       0.151900
     26 O14         -1.4140     2.1430    -6.9570 oh         1 IX1      -0.525100
     27 O3          -0.2560    -1.1470    -3.6630 os         1 IX1      -0.334100
     28 C40         -0.2580    -2.4740    -3.1180 c3         1 IX1       0.204800
     29 C41          0.4990    -2.4260    -1.8110 c2         1 IX1      -0.250200
     30 C9           0.3200    -0.7030     5.6900 c3         1 IX1       0.248900
     31 O4          -1.0630    -1.0660     5.6490 oh         1 IX1      -0.643000
     32 H1           2.8150    -1.3290     3.9600 ha         1 IX1       0.124000
     33 H3          -0.1360     0.1850     1.1960 ha         1 IX1       0.130000
     34 H5           2.1180    -3.3880     0.2500 ha         1 IX1       0.103000
     35 H6           3.3180    -3.1930     2.3990 ha         1 IX1       0.106000
     36 H8          -0.7190    -1.0300    -0.7930 ha         1 IX1       0.173000
     37 H33         -1.5790    -2.8450    -5.3220 ha         1 IX1       0.126000
     38 H34         -2.6690    -2.1980    -7.4370 ha         1 IX1       0.111000
     39 H35         -2.5990     0.1590    -8.2090 ha         1 IX1       0.115000
     40 H391         3.0660     1.9190    -3.6000 h1         1 IX1       0.045367
     41 H392         1.9350     3.2380    -3.9710 h1         1 IX1       0.045367
     42 H393         1.6650     2.2040    -2.5450 h1         1 IX1       0.045367
     43 H14         -1.9070     2.1840    -7.8040 ho         1 IX1       0.468000
     44 H401        -1.2850    -2.8190    -2.9400 h1         1 IX1       0.040200
     45 H402         0.2320    -3.1760    -3.8060 h1         1 IX1       0.040200
     46 H41          1.3820    -3.0630    -1.8040 ha         1 IX1       0.183000
     47 H91          0.9270    -1.5210     5.2850 h1         1 IX1       0.023200
     48 H92          0.6520    -0.5530     6.7250 h1         1 IX1       0.023200
     49 HO4         -1.1620    -1.8510     6.2300 ho         1 IX1       0.428000
@<TRIPOS>BOND
     1     1     2 ar  
     2     1     6 ar  
     3     1    32 1   
     4     2     3 ar  
     5     2     7 1   
     6     3     4 ar  
     7     3    33 1   
     8     4     5 ar  
     9     4    15 1   
    10     5     6 ar  
    11     5    34 1   
    12     6    35 1   
    13     7     8 1   
    14     7    11 2   
    15     8     9 1   
    16     9    10 2   
    17    10    11 1   
    18    10    12 1   
    19    11    30 1   
    20    12    13 1   
    21    12    14 1   
    22    15    29 2   
    23    15    36 1   
    24    16    17 ar  
    25    16    21 ar  
    26    16    27 1   
    27    17    18 ar  
    28    17    37 1   
    29    18    19 ar  
    30    18    38 1   
    31    19    20 ar  
    32    19    39 1   
    33    20    21 ar  
    34    20    26 1   
    35    21    22 1   
    36    22    23 2   
    37    22    24 1   
    38    24    25 1   
    39    25    40 1   
    40    25    41 1   
    41    25    42 1   
    42    26    43 1   
    43    27    28 1   
    44    28    29 1   
    45    28    44 1   
    46    28    45 1   
    47    29    46 1   
    48    30    31 1   
    49    30    47 1   
    50    30    48 1   
    51    31    49 1   
@<TRIPOS>SUBSTRUCTURE
     1 IX1         1 TEMP              0 ****  ****    0 ROOT
