@<TRIPOS>MOLECULE
IX2
   39    42     1     0     0
SMALL
bcc


@<TRIPOS>ATOM
      1 C1          94.5890   -12.6640     9.3460 ca         1 IX2      -0.108200
      2 C2          93.2720   -12.2770     9.0510 ca         1 IX2       0.110400
      3 C3          95.3790   -13.3980     8.4670 ca         1 IX2      -0.080000
      4 N4          94.8250   -12.1640    10.6060 na         1 IX2      -0.249300
      5 C5          92.6770   -12.6260     7.8330 ca         1 IX2      -0.105000
      6 N6          92.7420   -11.5670    10.1040 nc         1 IX2      -0.597100
      7 C7          94.7870   -13.7350     7.2680 ca         1 IX2      -0.146300
      8 C8          93.6940   -11.5250    10.9940 cd         1 IX2       0.437700
      9 C9          93.4710   -13.3510     6.9710 ca         1 IX2       0.104100
     10 C10         95.3340   -14.4570     6.0710 c5         1 IX2      -0.055100
     11 S11         93.6140   -10.7490    12.5520 ss         1 IX2      -0.196300
     12 O12         93.0760   -13.7660     5.7450 os         1 IX2      -0.309900
     13 C13         94.0570   -14.6930     5.2530 c5         1 IX2       0.126400
     14 C14         91.8820   -10.1820    12.5430 c3         1 IX2      -0.027600
     15 C15         91.6290    -9.4900    13.8530 ca         1 IX2       0.407600
     16 C16         91.9610    -8.1450    14.0550 ca         1 IX2      -0.152600
     17 N17         91.0800   -10.2490    14.7940 nb         1 IX2      -0.651000
     18 C18         91.6450    -7.6250    15.3080 ca         1 IX2       0.046400
     19 C19         92.6050    -7.2960    13.0030 c3         1 IX2      -0.050800
     20 C20         90.8140    -9.7190    15.9740 ca         1 IX2       0.406200
     21 C21         91.0650    -8.3930    16.3100 ca         1 IX2      -0.172600
     22 CL22        91.9810    -5.9600    15.6360 cl         1 IX2      -0.100400
     23 C23         90.7260    -7.8580    17.6630 c3         1 IX2      -0.043800
     24 H1          96.3950   -13.6860     8.7050 ha         1 IX2       0.139000
     25 H2          95.6780   -12.2520    11.1360 hn         1 IX2       0.314700
     26 H3          91.6620   -12.3410     7.5910 ha         1 IX2       0.163000
     27 H5          96.0540   -13.8350     5.5330 hc         1 IX2       0.062700
     28 H6          95.8330   -15.3940     6.3190 hc         1 IX2       0.062700
     29 H7          94.1860   -14.5210     4.1860 h1         1 IX2       0.056200
     30 H8          93.6810   -15.7100     5.3980 h1         1 IX2       0.056200
     31 H9          91.7200    -9.5350    11.6840 h1         1 IX2       0.100200
     32 H10         91.2290   -11.0480    12.4600 h1         1 IX2       0.100200
     33 H11         91.9090    -6.5450    12.6270 hc         1 IX2       0.056700
     34 H12         93.4680    -6.7640    13.4040 hc         1 IX2       0.056700
     35 H13         92.9550    -7.8800    12.1560 hc         1 IX2       0.056700
     36 H14         90.3660   -10.3760    16.7120 h4         1 IX2       0.025100
     37 H15         90.0180    -7.0300    17.5970 hc         1 IX2       0.053033
     38 H16         90.2790    -8.6350    18.2800 hc         1 IX2       0.053033
     39 H17         91.6120    -7.4860    18.1780 hc         1 IX2       0.053033
@<TRIPOS>BOND
     1     1     2 ar  
     2     1     3 ar  
     3     1     4 1   
     4     2     5 ar  
     5     2     6 1   
     6     3     7 ar  
     7     3    24 1   
     8     4     8 1   
     9     4    25 1   
    10     5     9 ar  
    11     5    26 1   
    12     6     8 2   
    13     7     9 ar  
    14     7    10 1   
    15     8    11 1   
    16     9    12 1   
    17    10    13 1   
    18    10    27 1   
    19    10    28 1   
    20    11    14 1   
    21    12    13 1   
    22    13    29 1   
    23    13    30 1   
    24    14    15 1   
    25    14    31 1   
    26    14    32 1   
    27    15    16 ar  
    28    15    17 ar  
    29    16    18 ar  
    30    16    19 1   
    31    17    20 ar  
    32    18    21 ar  
    33    18    22 1   
    34    19    33 1   
    35    19    34 1   
    36    19    35 1   
    37    20    21 ar  
    38    20    36 1   
    39    21    23 1   
    40    23    37 1   
    41    23    38 1   
    42    23    39 1   
@<TRIPOS>SUBSTRUCTURE
     1 IX2         1 TEMP              0 ****  ****    0 ROOT
