@<TRIPOS>MOLECULE
IX2
   39    42     1     0     0
SMALL
No Charge or Current Charge


@<TRIPOS>ATOM
      1 C1          94.5820   -12.6180     9.2590 ca         1 IX2      -0.108200
      2 C2          93.2440   -12.3710     9.0320 ca         1 IX2       0.110400
      3 C3          95.4010   -13.2850     8.3320 ca         1 IX2      -0.062000
      4 N4          94.9180   -12.1050    10.4830 na         1 IX2      -0.299600
      5 C5          92.6300   -12.7890     7.8390 ca         1 IX2      -0.087000
      6 N6          92.6610   -11.6940    10.0910 nc         1 IX2      -0.597100
      7 C7          94.7800   -13.7060     7.1410 ca         1 IX2      -0.146300
      8 C8          93.7080   -11.5690    10.9190 cd         1 IX2       0.437700
      9 C9          93.4370   -13.4690     6.9090 ca         1 IX2       0.104100
     10 C10         95.4020   -14.4070     5.9770 c5         1 IX2      -0.055100
     11 S11         93.6440   -10.7700    12.4900 ss         1 IX2      -0.244200
     12 O12         92.9950   -13.9270     5.6990 os         1 IX2      -0.333100
     13 C13         94.0830   -14.7790     5.2010 c5         1 IX2       0.149600
     14 C14         91.8700   -10.2460    12.6230 c3         1 IX2       0.020300
     15 C15         91.5900    -9.4990    13.9240 ca         1 IX2       0.342300
     16 C16         91.9960    -8.1560    14.1460 ca         1 IX2      -0.087300
     17 N17         90.9200   -10.2220    14.8520 nb         1 IX2      -0.651000
     18 C18         91.6820    -7.5710    15.3930 ca         1 IX2       0.138000
     19 C19         92.7550    -7.3340    13.0960 c3         1 IX2      -0.050800
     20 C20         90.6300    -9.6440    16.0370 ca         1 IX2       0.340900
     21 C21         90.9870    -8.3250    16.3590 ca         1 IX2      -0.107300
     22 Cl22        92.1550    -5.9030    15.7490 cl         1 IX2      -0.192000
     23 C23         90.6230    -7.7420    17.7220 c3         1 IX2      -0.043800
     24 H1          96.4570   -13.4640     8.5220 ha         1 IX2       0.121000
     25 H2          95.8070   -12.1040    10.9650 hn         1 IX2       0.365000
     26 H3          91.5790   -12.5990     7.6460 ha         1 IX2       0.145000
     27 H5          96.0480   -13.7440     5.3910 hc         1 IX2       0.062700
     28 H6          95.9830   -15.2920     6.2600 hc         1 IX2       0.062700
     29 H7          94.1840   -14.6580     4.1140 h1         1 IX2       0.056200
     30 H8          93.8090   -15.8230     5.4000 h1         1 IX2       0.056200
     31 H9          91.6050    -9.6140    11.7680 h1         1 IX2       0.100200
     32 H10         91.2390   -11.1420    12.5710 h1         1 IX2       0.100200
     33 H11         92.1910    -6.4340    12.8240 hc         1 IX2       0.056700
     34 H12         93.7290    -7.0110    13.4840 hc         1 IX2       0.056700
     35 H13         92.9510    -7.8760    12.1660 hc         1 IX2       0.056700
     36 H14         90.0910   -10.2650    16.7510 h4         1 IX2       0.025100
     37 H15         89.9780    -6.8620    17.6150 hc         1 IX2       0.053033
     38 H16         90.0850    -8.4680    18.3430 hc         1 IX2       0.053033
     39 H17         91.5200    -7.4390    18.2740 hc         1 IX2       0.053033
@<TRIPOS>BOND
     1     1     2 ar  
     2     1     3 ar  
     3     1     4 1   
     4     2     5 ar  
     5     2     6 1   
     6     3     7 ar  
     7     3    24 1   
     8     4     8 1   
     9     4    25 1   
    10     5     9 ar  
    11     5    26 1   
    12     6     8 2   
    13     7     9 ar  
    14     7    10 1   
    15     8    11 1   
    16     9    12 1   
    17    10    13 1   
    18    10    27 1   
    19    10    28 1   
    20    11    14 1   
    21    12    13 1   
    22    13    29 1   
    23    13    30 1   
    24    14    15 1   
    25    14    31 1   
    26    14    32 1   
    27    15    16 ar  
    28    15    17 ar  
    29    16    18 ar  
    30    16    19 1   
    31    17    20 ar  
    32    18    21 ar  
    33    18    22 1   
    34    19    33 1   
    35    19    34 1   
    36    19    35 1   
    37    20    21 ar  
    38    20    36 1   
    39    21    23 1   
    40    23    37 1   
    41    23    38 1   
    42    23    39 1   
@<TRIPOS>SUBSTRUCTURE
     1 IX2         1 TEMP              0 ****  ****    0 ROOT
