@<TRIPOS>MOLECULE
IX4
   33    35     1     0     0
SMALL
abcg2


@<TRIPOS>ATOM
      1 C4          -5.9910   -31.1970    -5.1220 c3         1 IX4      -0.152400
      2 C5          -5.1160   -31.3100    -3.8940 c          1 IX4       0.600100
      3 C6          -3.1460   -30.4450    -2.7250 c3         1 IX4       0.082700
      4 C11         -6.0930   -28.4500     0.7250 ca         1 IX4      -0.067000
      5 C7          -3.6760   -29.5480    -1.6530 cc         1 IX4       0.386800
      6 C8          -3.9580   -27.9340    -0.3020 ca         1 IX4       0.458000
      7 C9          -4.7520   -26.5050     1.2320 ca         1 IX4       0.320900
      8 C10         -5.9040   -27.2740     1.4340 ca         1 IX4      -0.157000
      9 C12         -5.0790   -28.7740    -0.1590 ca         1 IX4      -0.124200
     10 N1          -4.0360   -30.5090    -3.8630 ns         1 IX4      -0.503900
     11 N2          -3.1060   -28.4460    -1.2450 nd         1 IX4      -0.641700
     12 C3          -7.4690   -31.1180    -4.7410 c3         1 IX4      -0.040400
     13 N3          -3.7840   -26.8120     0.3820 nb         1 IX4      -0.607000
     14 C1          -7.4460   -28.5740    -4.3190 c3         1 IX4      -0.070100
     15 C2          -7.7900   -29.9540    -3.8380 cx         1 IX4       0.090400
     16 O1          -5.3840   -32.0810    -2.9810 o          1 IX4      -0.614100
     17 N4          -4.8560   -29.8010    -1.0280 na         1 IX4      -0.289600
     18 N5          -7.8180   -30.1860    -2.4000 n2         1 IX4      -0.129700
     19 N6          -8.9130   -30.1030    -2.9210 n2         1 IX4      -0.129700
     20 H6          -5.8310   -32.0890    -5.7340 hc         1 IX4       0.066200
     21 H7          -5.7040   -30.3460    -5.7410 hc         1 IX4       0.066200
     22 H9          -2.9760   -31.4490    -2.3340 h1         1 IX4       0.086200
     23 H10         -2.1860   -30.0540    -3.0570 h1         1 IX4       0.086200
     24 H11         -4.6230   -25.5890     1.7980 h4         1 IX4       0.020100
     25 H12         -6.6450   -26.9400     2.1470 ha         1 IX4       0.122000
     26 H8          -3.9080   -29.8240    -4.5900 hn         1 IX4       0.323500
     27 H4          -7.7760   -32.0510    -4.2660 hc         1 IX4       0.069700
     28 H5          -8.0570   -31.0250    -5.6580 hc         1 IX4       0.069700
     29 H1          -7.8720   -27.8080    -3.6720 hc         1 IX4       0.054033
     30 H2          -6.3650   -28.4230    -4.3430 hc         1 IX4       0.054033
     31 H3          -7.8250   -28.4150    -5.3290 hc         1 IX4       0.054033
     32 H14         -5.4530   -30.5970    -1.2030 hn         1 IX4       0.388000
     33 H13         -6.9730   -29.0650     0.8550 ha         1 IX4       0.128000
@<TRIPOS>BOND
     1     1     2 1   
     2     1    12 1   
     3     1    20 1   
     4     1    21 1   
     5     2    10 1   
     6     2    16 2   
     7     3     5 1   
     8     3    10 1   
     9     3    22 1   
    10     3    23 1   
    11     4     8 ar  
    12     4     9 ar  
    13     4    33 1   
    14     5    11 2   
    15     5    17 1   
    16     6     9 ar  
    17     6    11 1   
    18     6    13 ar  
    19     7     8 ar  
    20     7    13 ar  
    21     7    24 1   
    22     8    25 1   
    23     9    17 1   
    24    10    26 1   
    25    12    15 1   
    26    12    27 1   
    27    12    28 1   
    28    14    15 1   
    29    14    29 1   
    30    14    30 1   
    31    14    31 1   
    32    15    18 1   
    33    15    19 1   
    34    17    32 1   
    35    18    19 2   
@<TRIPOS>SUBSTRUCTURE
     1 IX4         1 TEMP              0 ****  ****    0 ROOT
