@<TRIPOS>MOLECULE
IX4
   33    35     1     0     0
SMALL
No Charge or Current Charge


@<TRIPOS>ATOM
      1 C4          -6.1660   -31.5480    -4.8910 c3         1 IX4      -0.152400
      2 C5          -5.1960   -31.3950    -3.7180 c          1 IX4       0.600100
      3 C6          -3.1940   -30.1140    -2.8680 c3         1 IX4       0.082700
      4 C11         -5.8490   -28.9280     1.1880 ca         1 IX4      -0.067000
      5 C7          -3.7410   -29.3640    -1.6710 cc         1 IX4       0.386800
      6 C8          -4.1600   -27.8440    -0.1840 ca         1 IX4       0.458000
      7 C9          -5.0200   -26.6770     1.6030 ca         1 IX4       0.320900
      8 C10         -5.8710   -27.7500     1.9580 ca         1 IX4      -0.157000
      9 C12         -4.9590   -28.9220     0.1100 ca         1 IX4      -0.124200
     10 N1          -4.2070   -30.4520    -3.8870 ns         1 IX4      -0.503900
     11 N2          -3.3860   -28.1150    -1.3060 nd         1 IX4      -0.641700
     12 C3          -7.5790   -31.0010    -4.5510 c3         1 IX4      -0.040400
     13 N3          -4.1700   -26.7150     0.5440 nb         1 IX4      -0.607000
     14 C1          -7.2290   -28.5210    -5.2880 c3         1 IX4      -0.070100
     15 C2          -7.6200   -29.5110    -4.1950 cx         1 IX4       0.090400
     16 O1          -5.2780   -32.0700    -2.7020 o          1 IX4      -0.614100
     17 N4          -4.7020   -29.8840    -0.8160 na         1 IX4      -0.289600
     18 N5          -7.4090   -29.1200    -2.8060 n2         1 IX4      -0.129700
     19 N6          -8.5960   -29.0760    -3.2030 n2         1 IX4      -0.129700
     20 H6          -6.2630   -32.6160    -5.1190 hc         1 IX4       0.066200
     21 H7          -5.7820   -31.0260    -5.7750 hc         1 IX4       0.066200
     22 H9          -2.7200   -31.0390    -2.5150 h1         1 IX4       0.086200
     23 H10         -2.4120   -29.5040    -3.3380 h1         1 IX4       0.086200
     24 H11         -5.0210   -25.7580     2.1870 h4         1 IX4       0.020100
     25 H12         -6.5300   -27.6610     2.8170 ha         1 IX4       0.122000
     26 H8          -4.2010   -29.9440    -4.7650 hn         1 IX4       0.323500
     27 H4          -7.9920   -31.5940    -3.7250 hc         1 IX4       0.069700
     28 H5          -8.2400   -31.1830    -5.4070 hc         1 IX4       0.069700
     29 H1          -7.4250   -27.4860    -4.9820 hc         1 IX4       0.054033
     30 H2          -6.1630   -28.5980    -5.5280 hc         1 IX4       0.054033
     31 H3          -7.7970   -28.7090    -6.2060 hc         1 IX4       0.054033
     32 H14         -5.1480   -30.7900    -0.9220 hn         1 IX4       0.388000
     33 H13         -6.4830   -29.7820     1.4160 ha         1 IX4       0.128000
@<TRIPOS>BOND
     1     1     2 1   
     2     1    12 1   
     3     1    20 1   
     4     1    21 1   
     5     2    10 1   
     6     2    16 2   
     7     3     5 1   
     8     3    10 1   
     9     3    22 1   
    10     3    23 1   
    11     4     8 ar  
    12     4     9 ar  
    13     4    33 1   
    14     5    11 2   
    15     5    17 1   
    16     6     9 ar  
    17     6    11 1   
    18     6    13 ar  
    19     7     8 ar  
    20     7    13 ar  
    21     7    24 1   
    22     8    25 1   
    23     9    17 1   
    24    10    26 1   
    25    12    15 1   
    26    12    27 1   
    27    12    28 1   
    28    14    15 1   
    29    14    29 1   
    30    14    30 1   
    31    14    31 1   
    32    15    18 1   
    33    15    19 1   
    34    17    32 1   
    35    18    19 2   
@<TRIPOS>SUBSTRUCTURE
     1 IX4         1 TEMP              0 ****  ****    0 ROOT
