@<TRIPOS>MOLECULE
IX5
   53    57     1     0     0
SMALL
abcg2


@<TRIPOS>ATOM
      1 C10        -54.2800    73.2300   -16.7220 c3         1 IX5       0.081900
      2 C13        -50.4910    79.8030   -13.2920 c6         1 IX5       0.142600
      3 O14        -49.1650    79.6360   -13.7580 os         1 IX5      -0.451000
      4 C15        -48.8490    78.3190   -14.1430 c6         1 IX5       0.142600
      5 C16        -50.0020    77.6010   -14.8170 c6         1 IX5       0.189800
      6 C18        -56.0140    74.8940   -12.1880 c3         1 IX5       0.151300
      7 C19        -56.8110    75.2020   -10.9750 cc         1 IX5       0.386800
      8 C21        -58.0950    76.2940    -9.5870 cc         1 IX5      -0.203000
      9 C22        -57.7400    75.0800    -9.0520 cd         1 IX5       0.295500
     10 C25        -58.1080    74.5100    -7.7570 ca         1 IX5      -0.100500
     11 C26        -58.9270    75.2080    -6.8650 ca         1 IX5      -0.095500
     12 C27        -59.2660    74.6640    -5.6370 ca         1 IX5      -0.115000
     13 C28        -58.7950    73.4090    -5.2690 ca         1 IX5      -0.111000
     14 C1         -52.1390    76.6750   -14.0680 ca         1 IX5       0.490900
     15 N2         -53.0710    76.6180   -13.1170 nb         1 IX5      -0.322000
     16 C3         -54.0680    75.7480   -13.2350 ca         1 IX5       0.430300
     17 N4         -54.2940    74.8830   -14.1960 nb         1 IX5      -0.318000
     18 C5         -52.2620    75.8110   -15.1920 ca         1 IX5      -0.414900
     19 C6         -53.3710    74.9560   -15.1600 ca         1 IX5       0.189500
     20 N7         -53.3460    74.2390   -16.2930 na         1 IX5      -0.022100
     21 N8         -52.2990    74.5760   -17.0670 nc         1 IX5      -0.531100
     22 C9         -51.6420    75.5120   -16.4320 cd         1 IX5       0.396800
     23 N11        -51.1390    77.5490   -13.9110 nh         1 IX5      -0.770300
     24 C12        -51.1320    78.5120   -12.8200 c6         1 IX5       0.189800
     25 N20        -57.5040    76.3550   -10.8110 na         1 IX5      -0.143500
     26 N23        -56.9360    74.4180    -9.9350 nd         1 IX5      -0.652000
     27 C29        -57.9820    72.7060    -6.1480 ca         1 IX5      -0.115000
     28 C30        -57.6420    73.2490    -7.3780 ca         1 IX5      -0.095500
     29 H33        -53.7820    72.2670   -16.8250 h1         1 IX5       0.059367
     30 H32        -55.0650    73.1430   -15.9770 h1         1 IX5       0.059367
     31 H34        -54.7260    73.5070   -17.6750 h1         1 IX5       0.059367
     32 H37        -51.1150    80.2380   -14.0820 h1         1 IX5       0.055200
     33 H38        -50.4760    80.5110   -12.4610 h1         1 IX5       0.055200
     34 H39        -48.0130    78.3700   -14.8420 h1         1 IX5       0.055200
     35 H40        -48.5150    77.7260   -13.2810 h1         1 IX5       0.055200
     36 H42        -49.6650    76.5910   -15.0570 h1         1 IX5       0.068450
     37 H41        -50.2700    78.0990   -15.7550 h1         1 IX5       0.068450
     38 H43        -56.6110    74.9970   -13.0980 h1         1 IX5       0.072700
     39 H44        -55.6700    73.8600   -12.1300 h1         1 IX5       0.072700
     40 H45        -58.7040    77.1020    -9.2160 h4         1 IX5       0.158000
     41 H46        -58.4450    78.0650   -11.5140 h1         1 IX5       0.057033
     42 H47        -56.6790    78.1060   -11.6280 h1         1 IX5       0.057033
     43 H48        -57.6260    77.1170   -12.7520 h1         1 IX5       0.057033
     44 H49        -59.3070    76.1880    -7.1280 ha         1 IX5       0.118000
     45 H50        -59.9010    75.2230    -4.9620 ha         1 IX5       0.109500
     46 H51        -59.0590    72.9850    -4.3090 ha         1 IX5       0.110000
     47 H31        -50.7610    75.9410   -16.8830 h4         1 IX5       0.045800
     48 H35        -52.1550    78.7200   -12.5130 h1         1 IX5       0.068450
     49 H36        -50.6090    78.1100   -11.9470 h1         1 IX5       0.068450
     50 H52        -57.6080    71.7270    -5.8760 ha         1 IX5       0.109500
     51 H53        -57.0060    72.6910    -8.0540 ha         1 IX5       0.118000
     52 O17        -54.9150    75.8030   -12.2070 os         1 IX5      -0.443300
     53 C24        -57.5590    77.4730   -11.7270 c3         1 IX5       0.057900
@<TRIPOS>BOND
     1     1    20 1   
     2     1    29 1   
     3     1    30 1   
     4     1    31 1   
     5     2     3 1   
     6     2    24 1   
     7     2    32 1   
     8     2    33 1   
     9     3     4 1   
    10     4     5 1   
    11     4    34 1   
    12     4    35 1   
    13     5    23 1   
    14     5    36 1   
    15     5    37 1   
    16     6     7 1   
    17     6    38 1   
    18     6    39 1   
    19     6    52 1   
    20     7    25 1   
    21     7    26 2   
    22     8     9 2   
    23     8    25 1   
    24     8    40 1   
    25     9    10 1   
    26     9    26 1   
    27    10    11 ar  
    28    10    28 ar  
    29    11    12 ar  
    30    11    44 1   
    31    12    13 ar  
    32    12    45 1   
    33    13    27 ar  
    34    13    46 1   
    35    14    15 ar  
    36    14    18 ar  
    37    14    23 1   
    38    15    16 ar  
    39    16    17 ar  
    40    16    52 1   
    41    17    19 ar  
    42    18    19 ar  
    43    18    22 1   
    44    19    20 1   
    45    20    21 1   
    46    21    22 2   
    47    22    47 1   
    48    23    24 1   
    49    24    48 1   
    50    24    49 1   
    51    25    53 1   
    52    27    28 ar  
    53    27    50 1   
    54    28    51 1   
    55    41    53 1   
    56    42    53 1   
    57    43    53 1   
@<TRIPOS>SUBSTRUCTURE
     1 IX5         1 TEMP              0 ****  ****    0 ROOT
