@<TRIPOS>MOLECULE
IX5
   53    57     1     0     0
SMALL
No Charge or Current Charge


@<TRIPOS>ATOM
      1 C10        -54.1650    73.0610   -16.7900 c3         1 IX5       0.081900
      2 C13        -50.3180    79.7600   -13.0340 c6         1 IX5       0.142600
      3 O14        -49.0410    79.5570   -13.6860 os         1 IX5      -0.451000
      4 C15        -48.7450    78.1570   -13.9020 c6         1 IX5       0.142600
      5 C16        -49.8250    77.4900   -14.8050 c6         1 IX5       0.189800
      6 C18        -56.0280    74.9290   -12.1200 c3         1 IX5       0.151300
      7 C19        -56.8200    75.2110   -10.8590 cc         1 IX5       0.386800
      8 C21        -58.1300    76.2480    -9.3890 cc         1 IX5      -0.203000
      9 C22        -57.7390    75.0210    -8.9130 cd         1 IX5       0.295500
     10 C25        -58.1050    74.4190    -7.6110 ca         1 IX5      -0.100500
     11 C26        -58.9400    75.1120    -6.7050 ca         1 IX5      -0.095500
     12 C27        -59.2870    74.5410    -5.4680 ca         1 IX5      -0.115000
     13 C28        -58.8070    73.2690    -5.1190 ca         1 IX5      -0.111000
     14 C1         -52.2290    76.7820   -14.3290 ca         1 IX5       0.490900
     15 N2         -53.0930    76.7770   -13.2990 nb         1 IX5      -0.322000
     16 C3         -54.0660    75.8390   -13.3040 ca         1 IX5       0.430300
     17 N4         -54.2480    74.9030   -14.2690 nb         1 IX5      -0.318000
     18 C5         -52.3780    75.8430   -15.3440 ca         1 IX5      -0.414900
     19 C6         -53.3800    74.9300   -15.2920 ca         1 IX5       0.189500
     20 N7         -53.2680    74.1750   -16.4480 na         1 IX5      -0.022100
     21 N8         -52.2160    74.6030   -17.2620 nc         1 IX5      -0.531100
     22 C9         -51.6760    75.6250   -16.5820 cd         1 IX5       0.396800
     23 N11        -51.2150    77.7600   -14.3130 nh         1 IX5      -0.770300
     24 C12        -51.4790    79.1780   -13.8930 c6         1 IX5       0.189800
     25 N20        -57.5460    76.3680   -10.6320 na         1 IX5      -0.143500
     26 N23        -56.9290    74.3810    -9.8300 nd         1 IX5      -0.652000
     27 C29        -57.9770    72.5690    -6.0080 ca         1 IX5      -0.115000
     28 C30        -57.6280    73.1390    -7.2450 ca         1 IX5      -0.095500
     29 H33        -54.1300    72.3050   -15.9960 h1         1 IX5       0.059367
     30 H32        -55.1920    73.4340   -16.8890 h1         1 IX5       0.059367
     31 H34        -53.8530    72.6050   -17.7370 h1         1 IX5       0.059367
     32 H37        -50.4760    80.8360   -12.8750 h1         1 IX5       0.055200
     33 H38        -50.3030    79.2700   -12.0500 h1         1 IX5       0.055200
     34 H39        -47.7570    78.0660   -14.3750 h1         1 IX5       0.055200
     35 H40        -48.7040    77.6430   -12.9310 h1         1 IX5       0.055200
     36 H42        -49.6260    76.4090   -14.8290 h1         1 IX5       0.068450
     37 H41        -49.7090    77.8680   -15.8310 h1         1 IX5       0.068450
     38 H43        -56.7020    75.0120   -12.9810 h1         1 IX5       0.072700
     39 H44        -55.6540    73.8970   -12.0810 h1         1 IX5       0.072700
     40 H45        -58.7560    77.0160    -8.9540 h4         1 IX5       0.158000
     41 H46        -58.3730    78.2510   -11.1220 h1         1 IX5       0.057033
     42 H47        -56.6900    77.9950   -11.6670 h1         1 IX5       0.057033
     43 H48        -58.0400    77.1830   -12.5160 h1         1 IX5       0.057033
     44 H49        -59.3250    76.0980    -6.9510 ha         1 IX5       0.118000
     45 H50        -59.9310    75.0850    -4.7810 ha         1 IX5       0.109500
     46 H51        -59.0770    72.8280    -4.1620 ha         1 IX5       0.110000
     47 H31        -50.8360    76.1530   -17.0160 h4         1 IX5       0.045800
     48 H35        -51.6080    79.8090   -14.7850 h1         1 IX5       0.068450
     49 H36        -52.4090    79.2600   -13.3130 h1         1 IX5       0.068450
     50 H52        -57.6030    71.5830    -5.7400 ha         1 IX5       0.109500
     51 H53        -56.9840    72.5780    -7.9190 ha         1 IX5       0.118000
     52 O17        -54.9290    75.8670   -12.2310 os         1 IX5      -0.443300
     53 C24        -57.6700    77.5190   -11.5400 c3         1 IX5       0.057900
@<TRIPOS>BOND
     1     1    20 1   
     2     1    29 1   
     3     1    30 1   
     4     1    31 1   
     5     2     3 1   
     6     2    24 1   
     7     2    32 1   
     8     2    33 1   
     9     3     4 1   
    10     4     5 1   
    11     4    34 1   
    12     4    35 1   
    13     5    23 1   
    14     5    36 1   
    15     5    37 1   
    16     6     7 1   
    17     6    38 1   
    18     6    39 1   
    19     6    52 1   
    20     7    25 1   
    21     7    26 2   
    22     8     9 2   
    23     8    25 1   
    24     8    40 1   
    25     9    10 1   
    26     9    26 1   
    27    10    11 ar  
    28    10    28 ar  
    29    11    12 ar  
    30    11    44 1   
    31    12    13 ar  
    32    12    45 1   
    33    13    27 ar  
    34    13    46 1   
    35    14    15 ar  
    36    14    18 ar  
    37    14    23 1   
    38    15    16 ar  
    39    16    17 ar  
    40    16    52 1   
    41    17    19 ar  
    42    18    19 ar  
    43    18    22 1   
    44    19    20 1   
    45    20    21 1   
    46    21    22 2   
    47    22    47 1   
    48    23    24 1   
    49    24    48 1   
    50    24    49 1   
    51    25    53 1   
    52    27    28 ar  
    53    27    50 1   
    54    28    51 1   
    55    41    53 1   
    56    42    53 1   
    57    43    53 1   
@<TRIPOS>SUBSTRUCTURE
     1 IX5         1 TEMP              0 ****  ****    0 ROOT
