@<TRIPOS>MOLECULE
IX6
   73    77     1     0     0
SMALL
abcg2


@<TRIPOS>ATOM
      1 C1          39.0870     3.8300   -19.3330 ca         1 IX6      -0.118000
      2 C2          38.8080     3.8060   -17.9710 ca         1 IX6      -0.084000
      3 C3          37.8280     2.9600   -17.4780 ca         1 IX6      -0.117000
      4 C4          37.1710     2.0820   -18.3330 ca         1 IX6      -0.016000
      5 C5          37.4490     2.0780   -19.7010 ca         1 IX6       0.206000
      6 C6          38.3970     2.9930   -20.1960 ca         1 IX6       0.090100
      7 C8          34.7980     1.4430   -18.4600 c3         1 IX6       0.257200
      8 C15         35.5950    -0.3730   -21.8750 c6         1 IX6      -0.079200
      9 C16         34.4280     3.5860   -19.8180 ca         1 IX6      -0.020000
     10 C17         34.5040     2.9220   -18.5990 ca         1 IX6      -0.173300
     11 C18         34.1940     4.9530   -19.9060 ca         1 IX6      -0.210000
     12 C19         34.0350     5.7000   -18.7390 ca         1 IX6       0.171100
     13 C21         34.3270     3.7060   -17.4630 ca         1 IX6       0.221000
     14 C24         33.5940     0.6210   -23.0560 c3         1 IX6      -0.090600
     15 C27         31.4390     7.1410   -20.2380 c2         1 IX6      -0.281000
     16 O29         38.7030     3.0430   -21.5290 oh         1 IX6      -0.548100
     17 C32         36.2580     0.4030   -16.7770 c          1 IX6       0.548600
     18 C34         37.6260     0.0740   -16.3130 cc         1 IX6       0.186500
     19 C35         38.7120    -0.3460   -17.0100 cd         1 IX6       0.165300
     20 C37         39.1430    -0.3470   -14.8650 cd         1 IX6       0.447300
     21 C39         39.9880    -0.5480   -13.6670 c3         1 IX6      -0.117400
     22 C40         39.0370    -0.5790   -18.4320 c3         1 IX6      -0.123400
     23 F41         34.4000     3.1080   -16.2470 f          1 IX6      -0.169000
     24 C20         34.0980     5.0620   -17.4970 ca         1 IX6      -0.191000
     25 O23         33.8150     7.0400   -18.6950 os         1 IX6      -0.342100
     26 C22         33.8220     7.7890   -19.9090 c3         1 IX6       0.196800
     27 C26         32.5340     7.7470   -20.6870 c2         1 IX6      -0.175400
     28 C28         32.6010     8.4660   -22.0030 c3         1 IX6      -0.052900
     29 N7          36.1390     1.2390   -17.8520 n          1 IX6      -0.241400
     30 N38         37.9180     0.0520   -14.9460 nc         1 IX6      -0.635000
     31 O36         39.6910    -0.6170   -16.0850 os         1 IX6      -0.283000
     32 O33         35.2830    -0.0920   -16.2180 o          1 IX6      -0.527100
     33 C9          34.6970     0.6490   -19.7380 ce         1 IX6      -0.421300
     34 S12         33.1570    -0.1600   -19.8990 sy         1 IX6       1.086100
     35 O30         32.1210     0.8340   -20.1580 o          1 IX6      -0.518500
     36 O31         32.9270    -0.9910   -18.7230 o          1 IX6      -0.518500
     37 C13         33.3300    -1.2270   -21.3170 c6         1 IX6      -0.321400
     38 C14         34.1970    -0.6470   -22.4400 c6         1 IX6      -0.008000
     39 C25         34.3190    -1.7240   -23.5260 c3         1 IX6      -0.090600
     40 C10         35.6750     0.5340   -20.6690 c2         1 IX6       0.279800
     41 N11         36.8850     1.1770   -20.6140 nu         1 IX6      -0.836000
     42 H1          39.8190     4.5100   -19.7460 ha         1 IX6       0.134000
     43 H2          39.3350     4.4730   -17.3010 ha         1 IX6       0.127000
     44 H3          37.5660     2.9620   -16.4290 ha         1 IX6       0.144000
     45 H8          34.1010     1.0180   -17.7400 h1         1 IX6       0.119700
     46 H15         36.0630    -1.3230   -21.5960 hc         1 IX6       0.067700
     47 H15A        36.2070     0.0560   -22.6720 hc         1 IX6       0.067700
     48 H16         34.5460     3.0210   -20.7310 ha         1 IX6       0.112000
     49 H18         34.1250     5.4150   -20.8790 ha         1 IX6       0.124000
     50 H24         33.5290     1.4410   -22.3430 hc         1 IX6       0.046033
     51 H24A        34.2130     0.9460   -23.8940 hc         1 IX6       0.046033
     52 H24B        32.5890     0.4190   -23.4300 hc         1 IX6       0.046033
     53 H27         31.4210     6.6250   -19.2880 ha         1 IX6       0.174000
     54 H27A        30.5260     7.1430   -20.8210 ha         1 IX6       0.174000
     55 HO29        37.9170     2.8790   -22.0700 ho         1 IX6       0.458000
     56 H39         40.8760     0.0870   -13.7110 hc         1 IX6       0.066700
     57 H39A        39.4150    -0.3010   -12.7770 hc         1 IX6       0.066700
     58 H39B        40.3220    -1.5850   -13.6030 hc         1 IX6       0.066700
     59 H40         39.6480     0.2330   -18.8340 hc         1 IX6       0.060700
     60 H40A        39.5940    -1.5110   -18.5410 hc         1 IX6       0.060700
     61 H40B        38.1280    -0.6460   -19.0250 hc         1 IX6       0.060700
     62 H20         33.9750     5.6240   -16.5820 ha         1 IX6       0.147000
     63 H22         34.0260     8.8180   -19.6040 h1         1 IX6       0.059200
     64 H22A        34.6580     7.4730   -20.5420 h1         1 IX6       0.059200
     65 H28         31.6370     8.4470   -22.5110 hc         1 IX6       0.041033
     66 H28A        32.9020     9.5090   -21.8630 hc         1 IX6       0.041033
     67 H28B        33.3490     8.0070   -22.6560 hc         1 IX6       0.041033
     68 H13         33.7650    -2.1510   -20.9360 h1         1 IX6       0.109700
     69 H13A        32.3060    -1.4180   -21.6420 h1         1 IX6       0.109700
     70 H25         34.9710    -1.3720   -24.3280 hc         1 IX6       0.046033
     71 H25A        34.7370    -2.6460   -23.1200 hc         1 IX6       0.046033
     72 H25B        33.3400    -1.9460   -23.9550 hc         1 IX6       0.046033
     73 HN11        37.4910     0.9620   -21.3920 hn         1 IX6       0.484000
@<TRIPOS>BOND
     1     1     2 ar  
     2     1     6 ar  
     3     1    42 1   
     4     2     3 ar  
     5     2    43 1   
     6     3     4 ar  
     7     3    44 1   
     8     4     5 ar  
     9     4    29 1   
    10     5     6 ar  
    11     5    41 1   
    12     6    16 1   
    13     7    10 1   
    14     7    29 1   
    15     7    33 1   
    16     7    45 1   
    17     8    38 1   
    18     8    40 1   
    19     8    46 1   
    20     8    47 1   
    21     9    10 ar  
    22     9    11 ar  
    23     9    48 1   
    24    10    13 ar  
    25    11    12 ar  
    26    11    49 1   
    27    12    24 ar  
    28    12    25 1   
    29    13    23 1   
    30    13    24 ar  
    31    14    38 1   
    32    14    50 1   
    33    14    51 1   
    34    14    52 1   
    35    15    27 2   
    36    15    53 1   
    37    15    54 1   
    38    16    55 1   
    39    17    18 1   
    40    17    29 1   
    41    17    32 2   
    42    18    19 2   
    43    18    30 1   
    44    19    22 1   
    45    19    31 1   
    46    20    21 1   
    47    20    30 2   
    48    20    31 1   
    49    21    56 1   
    50    21    57 1   
    51    21    58 1   
    52    22    59 1   
    53    22    60 1   
    54    22    61 1   
    55    24    62 1   
    56    25    26 1   
    57    26    27 1   
    58    26    63 1   
    59    26    64 1   
    60    27    28 1   
    61    28    65 1   
    62    28    66 1   
    63    28    67 1   
    64    33    34 1   
    65    33    40 2   
    66    34    35 2   
    67    34    36 2   
    68    34    37 1   
    69    37    38 1   
    70    37    68 1   
    71    37    69 1   
    72    38    39 1   
    73    39    70 1   
    74    39    71 1   
    75    39    72 1   
    76    40    41 1   
    77    41    73 1   
@<TRIPOS>SUBSTRUCTURE
     1 IX6         1 TEMP              0 ****  ****    0 ROOT
