@<TRIPOS>MOLECULE
IX6
   73    77     1     0     0
SMALL
No Charge or Current Charge


@<TRIPOS>ATOM
      1 C1          39.4190     3.6730   -19.3780 ca         1 IX6      -0.118000
      2 C2          39.1640     3.6610   -18.0000 ca         1 IX6      -0.084000
      3 C3          38.1150     2.8810   -17.4910 ca         1 IX6      -0.117000
      4 C4          37.2970     2.1210   -18.3560 ca         1 IX6      -0.016000
      5 C5          37.6050     2.0630   -19.7370 ca         1 IX6       0.206000
      6 C6          38.6510     2.8810   -20.2440 ca         1 IX6       0.090100
      7 C8          34.9190     1.4920   -18.4120 c3         1 IX6       0.257200
      8 C15         35.5330    -0.3120   -21.9290 c6         1 IX6      -0.079200
      9 C16         34.7100     3.6920   -19.7380 ca         1 IX6      -0.020000
     10 C17         34.5510     2.9820   -18.5280 ca         1 IX6      -0.173300
     11 C18         34.3790     5.0550   -19.8190 ca         1 IX6      -0.210000
     12 C19         33.8780     5.7330   -18.6900 ca         1 IX6       0.171100
     13 C21         34.0570     3.6770   -17.4050 ca         1 IX6       0.221000
     14 C24         33.6380     1.0780   -22.9770 c3         1 IX6      -0.090600
     15 C27         31.1250     6.9910   -20.2910 c2         1 IX6      -0.281000
     16 O29         38.9330     2.9190   -21.5860 oh         1 IX6      -0.548100
     17 C32         36.3640     0.5900   -16.5670 c          1 IX6       0.548600
     18 C34         37.7290     0.1570   -16.0820 cc         1 IX6       0.186500
     19 C35         38.8230    -0.2050   -16.8420 cd         1 IX6       0.165300
     20 C37         39.3050    -0.4680   -14.7960 cd         1 IX6       0.447300
     21 C39         40.1070    -0.8350   -13.5850 c3         1 IX6      -0.117400
     22 C40         39.0060    -0.4660   -18.3130 c3         1 IX6      -0.123400
     23 F41         33.8930     3.0410   -16.2240 f          1 IX6      -0.169000
     24 C20         33.7260     5.0360   -17.4850 ca         1 IX6      -0.191000
     25 O23         33.5380     7.0710   -18.7050 os         1 IX6      -0.342100
     26 C22         33.4830     7.8570   -19.9140 c3         1 IX6       0.196800
     27 C26         32.3120     7.3920   -20.7800 c2         1 IX6      -0.175400
     28 C28         32.6040     7.4570   -22.2690 c3         1 IX6      -0.052900
     29 N7          36.2620     1.2920   -17.8090 n          1 IX6      -0.241400
     30 N38         38.0490    -0.0600   -14.7570 nc         1 IX6      -0.635000
     31 O36         39.8540    -0.5790   -16.0380 os         1 IX6      -0.283000
     32 O33         35.3660     0.3810   -15.8810 o          1 IX6      -0.527100
     33 C9          34.7910     0.7270   -19.7240 ce         1 IX6      -0.421300
     34 S12         33.1540     0.0020   -19.8620 sy         1 IX6       1.086100
     35 O30         32.1940     1.1030   -19.9950 o          1 IX6      -0.518500
     36 O31         33.0040    -0.9670   -18.7710 o          1 IX6      -0.518500
     37 C13         33.1620    -0.9220   -21.4140 c6         1 IX6      -0.321400
     38 C14         34.0930    -0.3370   -22.4980 c6         1 IX6      -0.008000
     39 C25         34.0410    -1.2700   -23.7430 c3         1 IX6      -0.090600
     40 C10         35.7320     0.5420   -20.6790 c2         1 IX6       0.279800
     41 N11         36.9920     1.1330   -20.6050 nu         1 IX6      -0.836000
     42 H1          40.2220     4.2900   -19.7750 ha         1 IX6       0.134000
     43 H2          39.7710     4.2650   -17.3290 ha         1 IX6       0.127000
     44 H3          37.9150     2.9070   -16.4220 ha         1 IX6       0.144000
     45 H8          34.1750     1.0670   -17.7260 h1         1 IX6       0.119700
     46 H15         35.8530    -1.3370   -21.6940 hc         1 IX6       0.067700
     47 H15A        36.2130     0.0300   -22.7220 hc         1 IX6       0.067700
     48 H16         35.0960     3.1990   -20.6260 ha         1 IX6       0.112000
     49 H18         34.5220     5.5660   -20.7650 ha         1 IX6       0.124000
     50 H24         33.6960     1.8310   -22.1840 hc         1 IX6       0.046033
     51 H24A        34.2660     1.4390   -23.8010 hc         1 IX6       0.046033
     52 H24B        32.6020     1.0630   -23.3380 hc         1 IX6       0.046033
     53 H27         30.9260     6.9620   -19.2190 ha         1 IX6       0.174000
     54 H27A        30.3090     6.6770   -20.9420 ha         1 IX6       0.174000
     55 HO29        38.1090     2.7030   -22.0730 ho         1 IX6       0.458000
     56 H39         41.1610    -0.9870   -13.8420 hc         1 IX6       0.066700
     57 H39A        40.0540    -0.0450   -12.8280 hc         1 IX6       0.066700
     58 H39B        39.7300    -1.7620   -13.1370 hc         1 IX6       0.066700
     59 H40         39.5140     0.3710   -18.8030 hc         1 IX6       0.060700
     60 H40A        39.6250    -1.3570   -18.4720 hc         1 IX6       0.060700
     61 H40B        38.0480    -0.6510   -18.8100 hc         1 IX6       0.060700
     62 H20         33.3470     5.5510   -16.6080 ha         1 IX6       0.147000
     63 H22         33.3300     8.9130   -19.6570 h1         1 IX6       0.059200
     64 H22A        34.4330     7.7960   -20.4610 h1         1 IX6       0.059200
     65 H28         31.7390     7.1440   -22.8660 hc         1 IX6       0.041033
     66 H28A        32.8620     8.4780   -22.5760 hc         1 IX6       0.041033
     67 H28B        33.4420     6.8050   -22.5420 hc         1 IX6       0.041033
     68 H13         33.4860    -1.9320   -21.1360 h1         1 IX6       0.109700
     69 H13A        32.1170    -0.9650   -21.7440 h1         1 IX6       0.109700
     70 H25         34.7070    -0.9160   -24.5400 hc         1 IX6       0.046033
     71 H25A        34.3480    -2.2920   -23.4910 hc         1 IX6       0.046033
     72 H25B        33.0280    -1.3260   -24.1600 hc         1 IX6       0.046033
     73 HN11        37.6220     0.8090   -21.3370 hn         1 IX6       0.484000
@<TRIPOS>BOND
     1     1     2 ar  
     2     1     6 ar  
     3     1    42 1   
     4     2     3 ar  
     5     2    43 1   
     6     3     4 ar  
     7     3    44 1   
     8     4     5 ar  
     9     4    29 1   
    10     5     6 ar  
    11     5    41 1   
    12     6    16 1   
    13     7    10 1   
    14     7    29 1   
    15     7    33 1   
    16     7    45 1   
    17     8    38 1   
    18     8    40 1   
    19     8    46 1   
    20     8    47 1   
    21     9    10 ar  
    22     9    11 ar  
    23     9    48 1   
    24    10    13 ar  
    25    11    12 ar  
    26    11    49 1   
    27    12    24 ar  
    28    12    25 1   
    29    13    23 1   
    30    13    24 ar  
    31    14    38 1   
    32    14    50 1   
    33    14    51 1   
    34    14    52 1   
    35    15    27 2   
    36    15    53 1   
    37    15    54 1   
    38    16    55 1   
    39    17    18 1   
    40    17    29 1   
    41    17    32 2   
    42    18    19 2   
    43    18    30 1   
    44    19    22 1   
    45    19    31 1   
    46    20    21 1   
    47    20    30 2   
    48    20    31 1   
    49    21    56 1   
    50    21    57 1   
    51    21    58 1   
    52    22    59 1   
    53    22    60 1   
    54    22    61 1   
    55    24    62 1   
    56    25    26 1   
    57    26    27 1   
    58    26    63 1   
    59    26    64 1   
    60    27    28 1   
    61    28    65 1   
    62    28    66 1   
    63    28    67 1   
    64    33    34 1   
    65    33    40 2   
    66    34    35 2   
    67    34    36 2   
    68    34    37 1   
    69    37    38 1   
    70    37    68 1   
    71    37    69 1   
    72    38    39 1   
    73    39    70 1   
    74    39    71 1   
    75    39    72 1   
    76    40    41 1   
    77    41    73 1   
@<TRIPOS>SUBSTRUCTURE
     1 IX6         1 TEMP              0 ****  ****    0 ROOT
