@<TRIPOS>MOLECULE
IX8
   60    63     1     0     0
SMALL
bcc


@<TRIPOS>ATOM
      1 C15        112.8340   105.3170   144.7540 cc         1 IX8      -0.208800
      2 C17        113.7380   107.3190   143.6070 ca         1 IX8      -0.117500
      3 C20        113.5920   106.0950   141.1430 ca         1 IX8      -0.126000
      4 C21        113.1910   105.4080   142.2800 ca         1 IX8      -0.117500
      5 C22        114.4990   108.1390   139.9640 c3         1 IX8      -0.015400
      6 C24        113.6610   109.3990   139.7470 c3         1 IX8      -0.084100
      7 C28        108.8860   100.2780   151.8560 ca         1 IX8      -0.190500
      8 C1         106.1410   101.1390   147.6910 c3         1 IX8      -0.103100
      9 C2         107.5550   100.5780   147.7500 c3         1 IX8       0.114700
     10 N3         108.4920   101.5080   147.1480 ns         1 IX8      -0.566900
     11 C4         109.4530   101.1660   146.2760 c          1 IX8       0.697700
     12 O5         109.5800   100.0570   145.7820 o          1 IX8      -0.590100
     13 C6         110.3700   102.2830   145.8850 cc         1 IX8      -0.338900
     14 C7         110.5190   102.5570   144.5000 cc         1 IX8       0.473200
     15 N8         111.2720   103.5020   144.0160 nd         1 IX8      -0.641000
     16 C9         111.9640   104.2390   144.8960 cd         1 IX8       0.385500
     17 N10        111.8870   103.9880   146.2560 na         1 IX8       0.053200
     18 C11        111.1010   103.0140   146.7870 cd         1 IX8       0.090400
     19 C12        111.1500   102.8430   148.2630 c3         1 IX8      -0.064800
     20 N13        112.6470   104.8150   146.9720 nd         1 IX8      -0.578100
     21 C14        113.2070   105.6080   146.0750 cc         1 IX8       0.399500
     22 C16        113.2520   106.0090   143.5380 ca         1 IX8      -0.003800
     23 C18        114.1420   107.9940   142.4680 ca         1 IX8      -0.126000
     24 C19        114.0730   107.3980   141.2090 ca         1 IX8      -0.074300
     25 C23        115.9900   108.4760   139.9980 c3         1 IX8      -0.084100
     26 C25        107.9980   100.2320   149.1640 c3         1 IX8       0.120400
     27 O26        108.0230   101.4330   149.9080 os         1 IX8      -0.336900
     28 C27        108.5060   101.4270   151.1670 ca         1 IX8       0.137100
     29 C29        109.3690   100.3860   153.1560 ca         1 IX8      -0.090500
     30 C30        109.4770   101.6200   153.7780 ca         1 IX8      -0.163000
     31 C31        109.0940   102.7630   153.0820 ca         1 IX8      -0.090500
     32 C32        108.6130   102.6720   151.7880 ca         1 IX8      -0.190500
     33 H1         113.7890   107.8300   144.5600 ha         1 IX8       0.136000
     34 H2         113.5280   105.5990   140.1800 ha         1 IX8       0.127500
     35 H3         112.8290   104.3930   142.1810 ha         1 IX8       0.136000
     36 H4         114.3280   107.4730   139.1130 hc         1 IX8       0.048700
     37 H5         112.5960   109.1660   139.7000 hc         1 IX8       0.034367
     38 H6         113.8110   110.1200   140.5530 hc         1 IX8       0.034367
     39 H7         113.9390   109.8880   138.8120 hc         1 IX8       0.034367
     40 H9         105.4410   100.4490   148.1620 hc         1 IX8       0.048367
     41 H10        106.0640   102.0990   148.2020 hc         1 IX8       0.048367
     42 H11        105.8300   101.2810   146.6570 hc         1 IX8       0.048367
     43 H12        107.5920    99.6530   147.1740 h1         1 IX8       0.089700
     44 H13        108.4320   102.4710   147.4400 hn         1 IX8       0.325500
     45 H14        109.9610   101.9620   143.7850 h4         1 IX8       0.044100
     46 H15        112.1860   102.8020   148.6000 hc         1 IX8       0.074700
     47 H16        110.6820   103.6920   148.7630 hc         1 IX8       0.074700
     48 H17        110.6470   101.9360   148.5780 hc         1 IX8       0.074700
     49 H18        113.8880   106.3780   146.4080 h4         1 IX8       0.050800
     50 H19        114.5070   109.0100   142.5690 ha         1 IX8       0.127500
     51 H20        116.5990   107.5800   140.1210 hc         1 IX8       0.034367
     52 H21        116.2950   108.9620   139.0690 hc         1 IX8       0.034367
     53 H22        116.2250   109.1570   140.8180 hc         1 IX8       0.034367
     54 H23        107.3020    99.5080   149.6030 h1         1 IX8       0.046200
     55 H24        108.9920    99.7720   149.1360 h1         1 IX8       0.046200
     56 H25        109.6620    99.4860   153.6820 ha         1 IX8       0.132000
     57 H26        109.8530   101.6930   154.7890 ha         1 IX8       0.135000
     58 H27        109.1720   103.7350   153.5520 ha         1 IX8       0.132000
     59 H28        108.3170   103.5630   151.2470 ha         1 IX8       0.138000
     60 H8         108.8090    99.2980   151.4030 ha         1 IX8       0.138000
@<TRIPOS>BOND
     1     1    16 2   
     2     1    21 1   
     3     1    22 1   
     4     2    22 ar  
     5     2    23 ar  
     6     2    33 1   
     7     3     4 ar  
     8     3    24 ar  
     9     3    34 1   
    10     4    22 ar  
    11     4    35 1   
    12     5     6 1   
    13     5    24 1   
    14     5    25 1   
    15     5    36 1   
    16     6    37 1   
    17     6    38 1   
    18     6    39 1   
    19     7    28 ar  
    20     7    29 ar  
    21     7    60 1   
    22     8     9 1   
    23     8    40 1   
    24     8    41 1   
    25     8    42 1   
    26     9    10 1   
    27     9    26 1   
    28     9    43 1   
    29    10    11 1   
    30    10    44 1   
    31    11    12 2   
    32    11    13 1   
    33    13    14 1   
    34    13    18 2   
    35    14    15 2   
    36    14    45 1   
    37    15    16 1   
    38    16    17 1   
    39    17    18 1   
    40    17    20 1   
    41    18    19 1   
    42    19    46 1   
    43    19    47 1   
    44    19    48 1   
    45    20    21 2   
    46    21    49 1   
    47    23    24 ar  
    48    23    50 1   
    49    25    51 1   
    50    25    52 1   
    51    25    53 1   
    52    26    27 1   
    53    26    54 1   
    54    26    55 1   
    55    27    28 1   
    56    28    32 ar  
    57    29    30 ar  
    58    29    56 1   
    59    30    31 ar  
    60    30    57 1   
    61    31    32 ar  
    62    31    58 1   
    63    32    59 1   
@<TRIPOS>SUBSTRUCTURE
     1 IX8         1 TEMP              0 ****  ****    0 ROOT
