@<TRIPOS>MOLECULE
IX8
   60    63     1     0     0
SMALL
No Charge or Current Charge


@<TRIPOS>ATOM
      1 C15        112.7550   105.5780   144.7130 cc         1 IX8      -0.208800
      2 C17        113.7240   107.4670   143.4200 ca         1 IX8      -0.099500
      3 C20        113.7340   106.0130   141.0310 ca         1 IX8      -0.108000
      4 C21        113.2570   105.4220   142.2140 ca         1 IX8      -0.099500
      5 C22        114.7190   107.9710   139.7340 c3         1 IX8      -0.015400
      6 C24        113.8670   109.1920   139.3210 c3         1 IX8      -0.084100
      7 C28        108.8240    99.8710   152.0930 ca         1 IX8      -0.172500
      8 C1         106.3410   101.0600   147.7200 c3         1 IX8      -0.103100
      9 C2         107.7720   100.4920   147.8370 c3         1 IX8       0.114700
     10 N3         108.7530   101.4800   147.3750 ns         1 IX8      -0.499900
     11 C4         109.1570   101.6630   146.0760 c          1 IX8       0.630700
     12 O5         108.6840   100.9740   145.1860 o          1 IX8      -0.590100
     13 C6         110.1650   102.7360   145.8280 cc         1 IX8      -0.273600
     14 C7         110.4470   102.9440   144.4190 cc         1 IX8       0.407900
     15 N8         111.2820   103.8250   143.8790 nd         1 IX8      -0.641000
     16 C9         111.8780   104.5370   144.8910 cd         1 IX8       0.385500
     17 N10        111.6830   104.4610   146.2610 na         1 IX8       0.103900
     18 C11        110.8110   103.5090   146.8210 cd         1 IX8       0.039700
     19 C12        110.6850   103.4110   148.3390 c3         1 IX8      -0.064800
     20 N13        112.3420   105.4260   147.0030 nd         1 IX8      -0.578100
     21 C14        112.9600   106.0810   146.0270 cc         1 IX8       0.399500
     22 C16        113.2290   106.1440   143.4310 ca         1 IX8      -0.003800
     23 C18        114.1980   108.0580   142.2360 ca         1 IX8      -0.108000
     24 C19        114.2030   107.3380   141.0280 ca         1 IX8      -0.074300
     25 C23        116.2180   108.3300   139.8380 c3         1 IX8      -0.084100
     26 C25        108.1160   100.0240   149.2720 c3         1 IX8       0.143600
     27 O26        108.2440   101.1890   150.1130 os         1 IX8      -0.360100
     28 C27        108.5960   101.1040   151.4430 ca         1 IX8       0.137100
     29 C29        109.1830    99.8490   153.4530 ca         1 IX8      -0.072500
     30 C30        109.3170   101.0530   154.1650 ca         1 IX8      -0.145000
     31 C31        109.0910   102.2810   153.5210 ca         1 IX8      -0.072500
     32 C32        108.7310   102.3020   152.1630 ca         1 IX8      -0.172500
     33 H1         113.7300   108.0600   144.3290 ha         1 IX8       0.118000
     34 H2         113.7430   105.4280   140.1140 ha         1 IX8       0.109500
     35 H3         112.9460   104.3850   142.1660 ha         1 IX8       0.118000
     36 H4         114.6290   107.2380   138.9220 hc         1 IX8       0.048700
     37 H5         112.8110   108.9100   139.2310 hc         1 IX8       0.034367
     38 H6         113.9460   109.9980   140.0600 hc         1 IX8       0.034367
     39 H7         114.1980   109.5840   138.3520 hc         1 IX8       0.034367
     40 H9         105.6040   100.3160   148.0460 hc         1 IX8       0.048367
     41 H10        106.2230   101.9560   148.3410 hc         1 IX8       0.048367
     42 H11        106.1150   101.3290   146.6820 hc         1 IX8       0.048367
     43 H12        107.8350    99.6080   147.1870 h1         1 IX8       0.089700
     44 H13        109.1450   102.0970   148.0690 hn         1 IX8       0.325500
     45 H14        109.9560   102.3580   143.6540 h4         1 IX8       0.044100
     46 H15        111.4160   104.0260   148.8750 hc         1 IX8       0.074700
     47 H16        109.6960   103.7410   148.6780 hc         1 IX8       0.074700
     48 H17        110.8590   102.3860   148.6890 hc         1 IX8       0.074700
     49 H18        113.5660   106.9340   146.3030 h4         1 IX8       0.050800
     50 H19        114.5610   109.0830   142.2640 ha         1 IX8       0.109500
     51 H20        116.8070   107.4450   140.1080 hc         1 IX8       0.034367
     52 H21        116.5930   108.7070   138.8790 hc         1 IX8       0.034367
     53 H22        116.3890   109.1010   140.5980 hc         1 IX8       0.034367
     54 H23        107.3280    99.3540   149.6430 h1         1 IX8       0.046200
     55 H24        109.0610    99.4660   149.2460 h1         1 IX8       0.046200
     56 H25        109.3580    98.8990   153.9540 ha         1 IX8       0.114000
     57 H26        109.5950   101.0340   155.2170 ha         1 IX8       0.117000
     58 H27        109.1940   103.2130   154.0730 ha         1 IX8       0.114000
     59 H28        108.5560   103.2520   151.6640 ha         1 IX8       0.120000
     60 H8         108.7260    98.9270   151.5650 ha         1 IX8       0.120000
@<TRIPOS>BOND
     1     1    16 2   
     2     1    21 1   
     3     1    22 1   
     4     2    22 ar  
     5     2    23 ar  
     6     2    33 1   
     7     3     4 ar  
     8     3    24 ar  
     9     3    34 1   
    10     4    22 ar  
    11     4    35 1   
    12     5     6 1   
    13     5    24 1   
    14     5    25 1   
    15     5    36 1   
    16     6    37 1   
    17     6    38 1   
    18     6    39 1   
    19     7    28 ar  
    20     7    29 ar  
    21     7    60 1   
    22     8     9 1   
    23     8    40 1   
    24     8    41 1   
    25     8    42 1   
    26     9    10 1   
    27     9    26 1   
    28     9    43 1   
    29    10    11 1   
    30    10    44 1   
    31    11    12 2   
    32    11    13 1   
    33    13    14 1   
    34    13    18 2   
    35    14    15 2   
    36    14    45 1   
    37    15    16 1   
    38    16    17 1   
    39    17    18 1   
    40    17    20 1   
    41    18    19 1   
    42    19    46 1   
    43    19    47 1   
    44    19    48 1   
    45    20    21 2   
    46    21    49 1   
    47    23    24 ar  
    48    23    50 1   
    49    25    51 1   
    50    25    52 1   
    51    25    53 1   
    52    26    27 1   
    53    26    54 1   
    54    26    55 1   
    55    27    28 1   
    56    28    32 ar  
    57    29    30 ar  
    58    29    56 1   
    59    30    31 ar  
    60    30    57 1   
    61    31    32 ar  
    62    31    58 1   
    63    32    59 1   
@<TRIPOS>SUBSTRUCTURE
     1 IX8         1 TEMP              0 ****  ****    0 ROOT
