@<TRIPOS>MOLECULE
IX9
   50    54     1     0     0
SMALL
bcc


@<TRIPOS>ATOM
      1 N1          94.4360    -9.2960    12.3310 nb         1 IX9      -0.864000
      2 N3          96.6260    -9.3770    11.3970 nb         1 IX9      -0.811000
      3 C4          94.8030    -8.4590    13.2650 ca         1 IX9       0.784600
      4 C5          96.1210    -8.0100    13.3450 ca         1 IX9      -0.230200
      5 C6          96.9580    -8.5300    12.3590 ca         1 IX9       0.486800
      6 C8          98.0170    -7.1620    13.7040 cc         1 IX9       0.387700
      7 C10         92.3050    -9.6920    14.7060 ca         1 IX9      -0.124000
      8 C15         91.6490    -7.7040    13.4980 ca         1 IX9      -0.125000
      9 C17         90.6390   -11.4460    15.3780 c3         1 IX9      -0.047800
     10 C22         95.5150   -12.5410     9.1250 c6         1 IX9       0.200800
     11 C24         94.5980   -14.6670     7.3940 ca         1 IX9      -0.313300
     12 C26         93.4950   -10.9070    10.3150 c6         1 IX9       0.213800
     13 C28         94.0970   -15.6900     6.6170 ca         1 IX9      -0.055000
     14 C2          95.3440    -9.7350    11.4360 ca         1 IX9       0.973900
     15 N7          98.1690    -7.9700    12.6110 na         1 IX9      -0.372000
     16 N9          96.8070    -7.1560    14.1750 nd         1 IX9      -0.507100
     17 C11         92.6170    -8.4840    14.1060 ca         1 IX9       0.108100
     18 C12         90.9900   -10.1500    14.7080 ca         1 IX9      -0.067300
     19 O13         93.9170    -8.0140    14.1590 os         1 IX9      -0.339400
     20 C14         90.3380    -8.1580    13.5020 ca         1 IX9      -0.119000
     21 C16         90.0120    -9.3690    14.0960 ca         1 IX9      -0.128000
     22 N18         94.1100   -12.8340     8.9330 nh         1 IX9      -0.775300
     23 C19         93.7040   -13.9050     8.1730 ca         1 IX9       0.682200
     24 N20         92.4000   -14.1860     8.1830 nb         1 IX9      -0.749000
     25 N21         94.9010   -10.6280    10.5160 nh         1 IX9      -0.768300
     26 C23         93.2790   -12.3810    10.0350 c6         1 IX9       0.200800
     27 C25         95.7320   -11.0660     9.4170 c6         1 IX9       0.213800
     28 C27         91.9410   -15.1760     7.4310 ca         1 IX9       0.451200
     29 C29         92.7330   -15.9640     6.6180 ca         1 IX9      -0.303300
     30 H1          98.8470    -6.6010    14.1040 h5         1 IX9       0.066800
     31 H2          93.0870   -10.2790    15.1720 ha         1 IX9       0.144000
     32 H3          91.9150    -6.7640    13.0330 ha         1 IX9       0.147000
     33 H4          90.4840   -11.3000    16.4490 hc         1 IX9       0.044367
     34 H5          89.7210   -11.8700    14.9730 hc         1 IX9       0.044367
     35 H6          91.4330   -12.1830    15.2650 hc         1 IX9       0.044367
     36 H7          95.9360   -13.1460     9.9390 h1         1 IX9       0.056200
     37 H8          96.0790   -12.7670     8.2230 h1         1 IX9       0.056200
     38 H9          95.6620   -14.4820     7.3950 ha         1 IX9       0.138000
     39 H10         92.9320   -10.6270    11.2000 h1         1 IX9       0.067450
     40 H11         93.1160   -10.3140     9.4730 h1         1 IX9       0.067450
     41 H12         94.7770   -16.2810     6.0160 ha         1 IX9       0.131000
     42 H13         99.0230    -8.1200    12.0940 hn         1 IX9       0.316700
     43 H15         89.5660    -7.5630    13.0310 ha         1 IX9       0.134000
     44 H16         88.9840    -9.7110    14.0850 ha         1 IX9       0.132000
     45 H17         92.2340   -12.5440     9.7910 h1         1 IX9       0.056200
     46 H18         93.5050   -12.9590    10.9420 h1         1 IX9       0.056200
     47 H19         95.4980   -10.4820     8.5180 h1         1 IX9       0.067450
     48 H20         96.7790   -10.9040     9.6560 h1         1 IX9       0.067450
     49 H21         90.8710   -15.3500     7.4830 h4         1 IX9       0.014100
     50 H22         92.3080   -16.7600     6.0230 ha         1 IX9       0.142000
@<TRIPOS>BOND
     1     1     3 ar  
     2     1    14 ar  
     3     2     5 ar  
     4     2    14 ar  
     5     3     4 ar  
     6     3    19 1   
     7     4     5 ar  
     8     4    16 1   
     9     5    15 1   
    10     6    15 1   
    11     6    16 2   
    12     6    30 1   
    13     7    17 ar  
    14     7    18 ar  
    15     7    31 1   
    16     8    17 ar  
    17     8    20 ar  
    18     8    32 1   
    19     9    18 1   
    20     9    33 1   
    21     9    34 1   
    22     9    35 1   
    23    10    22 1   
    24    10    27 1   
    25    10    36 1   
    26    10    37 1   
    27    11    13 ar  
    28    11    23 ar  
    29    11    38 1   
    30    12    25 1   
    31    12    26 1   
    32    12    39 1   
    33    12    40 1   
    34    13    29 ar  
    35    13    41 1   
    36    14    25 1   
    37    15    42 1   
    38    17    19 1   
    39    18    21 ar  
    40    20    21 ar  
    41    20    43 1   
    42    21    44 1   
    43    22    23 1   
    44    22    26 1   
    45    23    24 ar  
    46    24    28 ar  
    47    25    27 1   
    48    26    45 1   
    49    26    46 1   
    50    27    47 1   
    51    27    48 1   
    52    28    29 ar  
    53    28    49 1   
    54    29    50 1   
@<TRIPOS>SUBSTRUCTURE
     1 IX9         1 TEMP              0 ****  ****    0 ROOT
