@<TRIPOS>MOLECULE
IX9
   50    54     1     0     0
SMALL
No Charge or Current Charge


@<TRIPOS>ATOM
      1 N1          94.3250    -9.2040    12.2260 nb         1 IX9      -0.338000
      2 N3          96.6240    -9.4700    11.5660 nb         1 IX9      -0.285000
      3 C4          94.6800    -8.2260    13.0880 ca         1 IX9       0.456300
      4 C5          96.0330    -7.8390    13.1930 ca         1 IX9      -0.099600
      5 C6          96.9540    -8.4900    12.4180 ca         1 IX9       0.158500
      6 C8          97.9300    -6.9340    13.6850 cc         1 IX9       0.387700
      7 C10         92.3580    -9.4300    14.5960 ca         1 IX9      -0.106000
      8 C15         91.3460    -7.3160    13.9320 ca         1 IX9      -0.107000
      9 C17         90.9430   -11.3870    15.3830 c3         1 IX9      -0.047800
     10 C22         95.5640   -12.7680     9.0640 c6         1 IX9       0.200800
     11 C24         94.6070   -15.1250     7.5360 ca         1 IX9      -0.230000
     12 C26         93.4770   -11.1190    10.3270 c6         1 IX9       0.213800
     13 C28         94.1520   -16.1260     6.6660 ca         1 IX9      -0.037000
     14 C2          95.3090    -9.7850    11.5050 ca         1 IX9       0.447900
     15 N7          98.1480    -7.9210    12.7280 na         1 IX9      -0.422300
     16 N9          96.6240    -6.8570    13.9980 nd         1 IX9      -0.507100
     17 C11         92.4880    -8.1120    14.1140 ca         1 IX9       0.108100
     18 C12         91.0830    -9.9620    14.8710 ca         1 IX9      -0.067300
     19 O13         93.7270    -7.5750    13.8480 os         1 IX9      -0.339400
     20 C14         90.0720    -7.8400    14.2090 ca         1 IX9      -0.101000
     21 C16         89.9410    -9.1600    14.6750 ca         1 IX9      -0.110000
     22 N18         94.1240   -13.0250     8.7520 nh         1 IX9      -0.775300
     23 C19         93.7420   -14.0720     7.8940 ca         1 IX9       0.616900
     24 N20         92.4820   -13.9810     7.4320 nb         1 IX9      -0.749000
     25 N21         94.9270   -10.8280    10.6220 nh         1 IX9      -0.768300
     26 C23         93.2190   -12.5890     9.8650 c6         1 IX9       0.200800
     27 C25         95.8440   -11.3000     9.5240 c6         1 IX9       0.213800
     28 C27         92.0430   -14.9440     6.5930 ca         1 IX9       0.385900
     29 C29         92.8390   -16.0260     6.1870 ca         1 IX9      -0.220000
     30 H1          98.7310    -6.3310    14.0990 h5         1 IX9       0.066800
     31 H2          93.2440   -10.0380    14.7590 ha         1 IX9       0.126000
     32 H3          91.4490    -6.2950    13.5730 ha         1 IX9       0.129000
     33 H4          91.0290   -11.4180    16.4760 hc         1 IX9       0.044367
     34 H5          89.9730   -11.8180    15.1110 hc         1 IX9       0.044367
     35 H6          91.7210   -12.0390    14.9670 hc         1 IX9       0.044367
     36 H7          95.8990   -13.4520     9.8570 h1         1 IX9       0.056200
     37 H8          96.1890   -12.9620     8.1790 h1         1 IX9       0.056200
     38 H9          95.6150   -15.1800     7.9320 ha         1 IX9       0.120000
     39 H10         92.8460   -10.9490    11.2110 h1         1 IX9       0.067450
     40 H11         93.1180   -10.4400     9.5410 h1         1 IX9       0.067450
     41 H12         94.7960   -16.9530     6.3730 ha         1 IX9       0.113000
     42 H13         99.0450    -8.1670    12.3330 hn         1 IX9       0.367000
     43 H15         89.1870    -7.2240    14.0640 ha         1 IX9       0.116000
     44 H16         88.9520    -9.5590    14.8870 ha         1 IX9       0.114000
     45 H17         92.1610   -12.6640     9.5770 h1         1 IX9       0.056200
     46 H18         93.3600   -13.2530    10.7300 h1         1 IX9       0.056200
     47 H19         95.7410   -10.6380     8.6520 h1         1 IX9       0.067450
     48 H20         96.8980   -11.2580     9.8330 h1         1 IX9       0.067450
     49 H21         91.0190   -14.8450     6.2350 h4         1 IX9       0.014100
     50 H22         92.4350   -16.7730     5.5100 ha         1 IX9       0.124000
@<TRIPOS>BOND
     1     1     3 ar  
     2     1    14 ar  
     3     2     5 ar  
     4     2    14 ar  
     5     3     4 ar  
     6     3    19 1   
     7     4     5 ar  
     8     4    16 1   
     9     5    15 1   
    10     6    15 1   
    11     6    16 2   
    12     6    30 1   
    13     7    17 ar  
    14     7    18 ar  
    15     7    31 1   
    16     8    17 ar  
    17     8    20 ar  
    18     8    32 1   
    19     9    18 1   
    20     9    33 1   
    21     9    34 1   
    22     9    35 1   
    23    10    22 1   
    24    10    27 1   
    25    10    36 1   
    26    10    37 1   
    27    11    13 ar  
    28    11    23 ar  
    29    11    38 1   
    30    12    25 1   
    31    12    26 1   
    32    12    39 1   
    33    12    40 1   
    34    13    29 ar  
    35    13    41 1   
    36    14    25 1   
    37    15    42 1   
    38    17    19 1   
    39    18    21 ar  
    40    20    21 ar  
    41    20    43 1   
    42    21    44 1   
    43    22    23 1   
    44    22    26 1   
    45    23    24 ar  
    46    24    28 ar  
    47    25    27 1   
    48    26    45 1   
    49    26    46 1   
    50    27    47 1   
    51    27    48 1   
    52    28    29 ar  
    53    28    49 1   
    54    29    50 1   
@<TRIPOS>SUBSTRUCTURE
     1 IX9         1 TEMP              0 ****  ****    0 ROOT
