@<TRIPOS>MOLECULE
IXA
   62    64     1     0     0
SMALL
No Charge or Current Charge


@<TRIPOS>ATOM
      1 C25          1.6210    -0.1700    -0.5010 c          1 IXA       0.629700
      2 O26          1.5100    -0.9110    -1.4680 o          1 IXA      -0.603100
      3 C27          2.9220     0.5260    -0.1730 ca         1 IXA      -0.198600
      4 C28          3.0610     1.3770     0.9500 ca         1 IXA      -0.021000
      5 C29          4.2910     1.9980     1.2190 ca         1 IXA      -0.189000
      6 C30          5.3890     1.7780     0.3780 ca         1 IXA       0.137600
      7 C31          5.2810     0.9380    -0.7400 ca         1 IXA      -0.160800
      8 C32          4.0430     0.3140    -1.0090 ca         1 IXA       0.030000
      9 C33          6.4580     0.7340    -1.5920 cc         1 IXA       0.246900
     10 C34          7.6270     1.3770    -1.2630 cd         1 IXA      -0.438200
     11 C35          7.7650     2.2610    -0.0970 c          1 IXA       0.588200
     12 O36          8.8000     2.8320     0.1980 o          1 IXA      -0.552000
     13 N37          6.6200     2.3900     0.6360 ns         1 IXA      -0.380100
     14 O38          6.3440    -0.0710    -2.6600 oh         1 IXA      -0.516100
     15 N24          0.5570     0.0800     0.3380 ns         1 IXA      -0.493900
     16 C22         -1.9040     0.4390     0.5560 c          1 IXA       0.589100
     17 O23         -1.7020     1.5480     1.0360 o          1 IXA      -0.610100
     18 C20         -0.8390    -1.7950     1.2280 c3         1 IXA      -0.043100
     19 C17          0.2800    -2.8100     1.0130 ca         1 IXA      -0.082300
     20 C16          1.4330    -2.7830     1.8230 ca         1 IXA      -0.099000
     21 C18          0.1720    -3.7780    -0.0040 ca         1 IXA      -0.099000
     22 C15          2.4670    -3.7110     1.6160 ca         1 IXA      -0.105500
     23 C19          1.2060    -4.7080    -0.2100 ca         1 IXA      -0.105500
     24 C14          2.3540    -4.6750     0.6000 ca         1 IXA      -0.104000
     25 C3          -8.2230     0.0220    -0.0760 c3         1 IXA       0.146800
     26 C4          -6.9520     0.8220     0.2800 c3         1 IXA      -0.068400
     27 C5          -5.6530     0.0100     0.0770 c3         1 IXA      -0.096400
     28 N7         -10.2520     0.8890    -2.0090 nv         1 IXA      -1.043200
     29 C8         -10.2490     1.1650    -0.7330 c2         1 IXA       0.787100
     30 N10        -11.3170     1.8790    -0.5310 nv         1 IXA      -1.043200
     31 C12         -4.3860     0.8090     0.4340 c3         1 IXA       0.099000
     32 N13         -3.1750     0.0130     0.2340 ns         1 IXA      -0.498900
     33 C24         -0.7680    -0.5820     0.2620 c3         1 IXA       0.031700
     34 N25         -9.4240     0.8440     0.1570 n2         1 IXA      -0.736900
     35 H24          0.7070     0.7520     1.0790 hn         1 IXA       0.334500
     36 H28          2.2310     1.5690     1.6260 ha         1 IXA       0.118000
     37 H32          3.9480    -0.3410    -1.8730 ha         1 IXA       0.153000
     38 H29          4.3870     2.6500     2.0840 ha         1 IXA       0.125000
     39 H37          6.6780     2.9920     1.4470 hn         1 IXA       0.330500
     40 H34          8.5320     1.2710    -1.8480 ha         1 IXA       0.210000
     41 H38          7.2210    -0.0790    -3.0950 ho         1 IXA       0.480000
     42 HA          -0.9280    -0.9410    -0.7640 h1         1 IXA       0.090700
     43 H13         -3.2650    -0.9140    -0.1660 hn         1 IXA       0.314500
     44 H201        -1.8100    -2.2920     1.1140 hc         1 IXA       0.057700
     45 H202        -0.8130    -1.4250     2.2610 hc         1 IXA       0.057700
     46 H16          1.5310    -2.0380     2.6100 ha         1 IXA       0.106000
     47 H18         -0.7110    -3.8080    -0.6380 ha         1 IXA       0.106000
     48 H15          3.3560    -3.6830     2.2430 ha         1 IXA       0.112000
     49 H19          1.1180    -5.4530    -0.9980 ha         1 IXA       0.112000
     50 H14          3.1550    -5.3930     0.4390 ha         1 IXA       0.113000
     51 H31C        -8.1460    -0.3160    -1.1170 h1         1 IXA       0.017700
     52 H32C        -8.2610    -0.8780     0.5530 h1         1 IXA       0.017700
     53 H41C        -6.9120     1.7270    -0.3380 hc         1 IXA       0.054200
     54 H42C        -7.0130     1.1480     1.3260 hc         1 IXA       0.054200
     55 H51C        -5.6940    -0.8950     0.6950 hc         1 IXA       0.039200
     56 H52C        -5.5910    -0.3150    -0.9690 hc         1 IXA       0.039200
     57 H121        -4.3260     1.7090    -0.1940 h1         1 IXA       0.058700
     58 H122        -4.4340     1.1250     1.4850 h1         1 IXA       0.058700
     59 H71N       -10.6010     1.6790    -2.5320 hn         1 IXA       0.460750
     60 H72N        -9.3530     0.5580    -2.3240 hn         1 IXA       0.460750
     61 H101       -12.1060     1.4600    -1.0000 hn         1 IXA       0.460750
     62 H102       -11.4660     2.0160     0.4590 hn         1 IXA       0.460750
@<TRIPOS>BOND
     1     1     2 2   
     2     1     3 1   
     3     1    15 1   
     4     3     4 ar  
     5     3     8 ar  
     6     4     5 ar  
     7     4    36 1   
     8     5     6 ar  
     9     5    38 1   
    10     6     7 ar  
    11     6    13 1   
    12     7     8 ar  
    13     7     9 1   
    14     8    37 1   
    15     9    10 2   
    16     9    14 1   
    17    10    11 1   
    18    10    40 1   
    19    11    12 2   
    20    11    13 1   
    21    13    39 1   
    22    14    41 1   
    23    15    33 1   
    24    15    35 1   
    25    16    17 2   
    26    16    32 1   
    27    16    33 1   
    28    18    19 1   
    29    18    33 1   
    30    18    44 1   
    31    18    45 1   
    32    19    20 ar  
    33    19    21 ar  
    34    20    22 ar  
    35    20    46 1   
    36    21    23 ar  
    37    21    47 1   
    38    22    24 ar  
    39    22    48 1   
    40    23    24 ar  
    41    23    49 1   
    42    24    50 1   
    43    25    26 1   
    44    25    34 1   
    45    25    51 1   
    46    25    52 1   
    47    26    27 1   
    48    26    53 1   
    49    26    54 1   
    50    27    31 1   
    51    27    55 1   
    52    27    56 1   
    53    28    29 1   
    54    28    59 1   
    55    28    60 1   
    56    29    30 1   
    57    29    34 2   
    58    30    61 1   
    59    30    62 1   
    60    31    32 1   
    61    31    57 1   
    62    31    58 1   
    63    32    43 1   
    64    33    42 1   
@<TRIPOS>SUBSTRUCTURE
     1 IXA         1 TEMP              0 ****  ****    0 ROOT
