@<TRIPOS>MOLECULE
IXA
   62    64     1     0     0
SMALL
abcg2


@<TRIPOS>ATOM
      1 C25          1.6010    -0.2520    -0.4400 c          1 IXA       0.629700
      2 O26          1.4790    -0.8980    -1.4700 o          1 IXA      -0.603100
      3 C27          2.9220     0.3260    -0.0490 ca         1 IXA      -0.198600
      4 C28          3.2650     0.6260     1.2770 ca         1 IXA      -0.021000
      5 C29          4.5070     1.1230     1.5950 ca         1 IXA      -0.189000
      6 C30          5.4490     1.3470     0.5860 ca         1 IXA       0.137600
      7 C31          5.1210     1.0510    -0.7460 ca         1 IXA      -0.160800
      8 C32          3.8610     0.5310    -1.0430 ca         1 IXA       0.030000
      9 C33          6.1300     1.3010    -1.7480 cc         1 IXA       0.246900
     10 C34          7.3430     1.8000    -1.3990 cd         1 IXA      -0.438200
     11 C35          7.6800     2.0970    -0.0300 c          1 IXA       0.588200
     12 O36          8.7610     2.5420     0.3380 o          1 IXA      -0.552000
     13 N37          6.6830     1.8440     0.8850 ns         1 IXA      -0.380100
     14 O38          5.7770     1.0100    -2.9950 oh         1 IXA      -0.516100
     15 N24          0.5780     0.0010     0.3970 ns         1 IXA      -0.493900
     16 C22         -1.7840     0.5010     0.4740 c          1 IXA       0.589100
     17 O23         -1.5970     1.4010     1.2820 o          1 IXA      -0.610100
     18 C20         -0.9580    -1.7220     1.2590 c3         1 IXA      -0.043100
     19 C17          0.0990    -2.7790     1.1380 ca         1 IXA      -0.082300
     20 C16          1.2370    -2.7410     1.9390 ca         1 IXA      -0.099000
     21 C18         -0.0110    -3.7880     0.1840 ca         1 IXA      -0.099000
     22 C15          2.2460    -3.6830     1.7870 ca         1 IXA      -0.105500
     23 C19          0.9910    -4.7350     0.0320 ca         1 IXA      -0.105500
     24 C14          2.1260    -4.6820     0.8320 ca         1 IXA      -0.104000
     25 C3          -7.8870     0.4820    -0.4120 c3         1 IXA       0.146800
     26 C4          -6.6000     1.2580    -0.1730 c3         1 IXA      -0.068400
     27 C5          -5.3600     0.3840    -0.2920 c3         1 IXA      -0.096400
     28 N7         -10.4730    -0.3310    -1.0850 nv         1 IXA      -1.043200
     29 C8         -10.1800     0.9220    -0.6110 c2         1 IXA       0.787100
     30 N10        -11.2690     1.7660    -0.5450 nv         1 IXA      -1.043200
     31 C12         -4.0810     1.1840    -0.0940 c3         1 IXA       0.099000
     32 N13         -2.9120     0.3370    -0.2220 ns         1 IXA      -0.498900
     33 C24         -0.7290    -0.5780     0.2470 c3         1 IXA       0.031700
     34 N25         -9.0290     1.3460    -0.2440 n2         1 IXA      -0.736900
     35 H24          0.7050     0.6330     1.1720 hn         1 IXA       0.334500
     36 H28          2.5680     0.4520     2.0860 ha         1 IXA       0.118000
     37 H32          3.6090     0.2910    -2.0660 ha         1 IXA       0.153000
     38 H29          4.7610     1.3350     2.6260 ha         1 IXA       0.125000
     39 H37          6.8990     2.0380     1.8530 hn         1 IXA       0.330500
     40 H34          8.1040     1.9870    -2.1470 ha         1 IXA       0.210000
     41 H38          6.4910     1.2080    -3.6140 ho         1 IXA       0.480000
     42 HA          -0.8070    -0.9790    -0.7640 h1         1 IXA       0.090700
     43 H13         -2.9420    -0.3850    -0.9250 hn         1 IXA       0.314500
     44 H201        -1.9490    -2.1460     1.0830 hc         1 IXA       0.057700
     45 H202        -0.9620    -1.3030     2.2680 hc         1 IXA       0.057700
     46 H16          1.3350    -1.9700     2.6950 ha         1 IXA       0.106000
     47 H18         -0.8920    -3.8310    -0.4470 ha         1 IXA       0.106000
     48 H15          3.1240    -3.6370     2.4190 ha         1 IXA       0.112000
     49 H19          0.8880    -5.5140    -0.7130 ha         1 IXA       0.112000
     50 H14          2.9110    -5.4180     0.7120 ha         1 IXA       0.113000
     51 H31C        -7.8320     0.0370    -1.4190 h1         1 IXA       0.017700
     52 H32C        -7.9180    -0.3690     0.2850 h1         1 IXA       0.017700
     53 H41C        -6.5450     2.0810    -0.8940 hc         1 IXA       0.054200
     54 H42C        -6.6360     1.7170     0.8200 hc         1 IXA       0.054200
     55 H51C        -5.3980    -0.4210     0.4480 hc         1 IXA       0.039200
     56 H52C        -5.3420    -0.0960    -1.2760 hc         1 IXA       0.039200
     57 H121        -4.0360     2.0000    -0.8220 h1         1 IXA       0.058700
     58 H122        -4.0710     1.6390     0.8960 h1         1 IXA       0.058700
     59 H71N       -11.2890    -0.4160    -1.6710 hn         1 IXA       0.460750
     60 H72N        -9.7010    -0.8850    -1.4180 hn         1 IXA       0.460750
     61 H101       -12.1550     1.3260    -0.3460 hn         1 IXA       0.460750
     62 H102       -11.1100     2.5710     0.0390 hn         1 IXA       0.460750
@<TRIPOS>BOND
     1     1     2 2   
     2     1     3 1   
     3     1    15 1   
     4     3     4 ar  
     5     3     8 ar  
     6     4     5 ar  
     7     4    36 1   
     8     5     6 ar  
     9     5    38 1   
    10     6     7 ar  
    11     6    13 1   
    12     7     8 ar  
    13     7     9 1   
    14     8    37 1   
    15     9    10 2   
    16     9    14 1   
    17    10    11 1   
    18    10    40 1   
    19    11    12 2   
    20    11    13 1   
    21    13    39 1   
    22    14    41 1   
    23    15    33 1   
    24    15    35 1   
    25    16    17 2   
    26    16    32 1   
    27    16    33 1   
    28    18    19 1   
    29    18    33 1   
    30    18    44 1   
    31    18    45 1   
    32    19    20 ar  
    33    19    21 ar  
    34    20    22 ar  
    35    20    46 1   
    36    21    23 ar  
    37    21    47 1   
    38    22    24 ar  
    39    22    48 1   
    40    23    24 ar  
    41    23    49 1   
    42    24    50 1   
    43    25    26 1   
    44    25    34 1   
    45    25    51 1   
    46    25    52 1   
    47    26    27 1   
    48    26    53 1   
    49    26    54 1   
    50    27    31 1   
    51    27    55 1   
    52    27    56 1   
    53    28    29 1   
    54    28    59 1   
    55    28    60 1   
    56    29    30 1   
    57    29    34 2   
    58    30    61 1   
    59    30    62 1   
    60    31    32 1   
    61    31    57 1   
    62    31    58 1   
    63    32    43 1   
    64    33    42 1   
@<TRIPOS>SUBSTRUCTURE
     1 IXA         1 TEMP              0 ****  ****    0 ROOT
