@<TRIPOS>MOLECULE
IXD
   22    22     1     0     0
SMALL
bcc


@<TRIPOS>ATOM
      1 S           -2.9430     0.2320     0.4580 s6         1 IXD       1.509300
      2 C1           0.4590    -0.8030    -0.9590 c6         1 IXD       0.330900
      3 C2          -0.3650     0.0690    -0.0190 c6         1 IXD       0.186100
      4 O2          -1.6630     0.1670    -0.5700 os         1 IXD      -0.551500
      5 C3           0.3000     1.4330     0.1190 c6         1 IXD       0.169300
      6 O3           0.0350     2.1710    -1.0620 oh         1 IXD      -0.590800
      7 C4           1.7640     1.2290     0.3560 c2         1 IXD      -0.392200
      8 O1          -0.1340    -2.0350    -1.0880 oh         1 IXD      -0.559800
      9 C5           2.3860     0.0760     0.1000 ce         1 IXD       0.058900
     10 O5           1.7570    -1.0020    -0.4150 os         1 IXD      -0.346900
     11 C6           3.8720    -0.1580     0.3710 c          1 IXD       0.935800
     12 O1S         -2.7660     1.4560     1.2440 o          1 IXD      -0.722533
     13 O2S         -4.0450     0.2740    -0.4990 o          1 IXD      -0.722533
     14 O3S         -2.8730    -0.9920     1.2600 o          1 IXD      -0.722533
     15 O61          4.3210    -1.2650     0.0340 o          1 IXD      -0.821300
     16 O62          4.4840     0.7860     0.9010 o          1 IXD      -0.821300
     17 H1           0.5730    -0.2960    -1.9290 h2         1 IXD       0.032700
     18 H3          -0.1320     1.9470     0.9860 h1         1 IXD       0.055700
     19 HO3          0.6420     2.9170    -1.0860 ho         1 IXD       0.376000
     20 H4           2.3430     2.0460     0.7640 ha         1 IXD       0.139000
     21 HO1          0.1850    -2.4630    -1.8890 ho         1 IXD       0.388000
     22 H2          -0.3830    -0.4140     0.9670 h1         1 IXD       0.070700
@<TRIPOS>BOND
     1     1     4 1   
     2     1    12 1   
     3     1    13 1   
     4     1    14 1   
     5     2     3 1   
     6     2     8 1   
     7     2    10 1   
     8     2    17 1   
     9     3     4 1   
    10     3     5 1   
    11     3    22 1   
    12     5     6 1   
    13     5     7 1   
    14     5    18 1   
    15     6    19 1   
    16     7     9 2   
    17     7    20 1   
    18     8    21 1   
    19     9    10 1   
    20     9    11 1   
    21    11    15 1   
    22    11    16 1   
@<TRIPOS>SUBSTRUCTURE
     1 IXD         1 TEMP              0 ****  ****    0 ROOT
