@<TRIPOS>MOLECULE
IXD
   22    22     1     0     0
SMALL
No Charge or Current Charge


@<TRIPOS>ATOM
      1 S           -3.0440     0.1990     0.5290 s6         1 IXD       1.509300
      2 C1           0.4020    -0.7980    -1.0200 c6         1 IXD       0.377300
      3 C2          -0.4640     0.0920    -0.0700 c6         1 IXD       0.209300
      4 O2          -1.8240     0.2520    -0.5650 os         1 IXD      -0.574700
      5 C3           0.2870     1.4630     0.0340 c6         1 IXD       0.192500
      6 O3           0.2100     2.2380    -1.1660 oh         1 IXD      -0.653000
      7 C4           1.7580     1.2510     0.3120 c2         1 IXD      -0.442200
      8 O1          -0.1530    -2.1000    -1.2170 oh         1 IXD      -0.622000
      9 C5           2.4020     0.0740     0.0730 ce         1 IXD       0.058900
     10 O5           1.7230    -1.0070    -0.4870 os         1 IXD      -0.370100
     11 C6           3.8940    -0.1490     0.3870 c          1 IXD       0.725200
     12 O1S         -2.6790     1.2150     1.5270 o          1 IXD      -0.722533
     13 O2S         -4.2410     0.5250    -0.2600 o          1 IXD      -0.722533
     14 O3S         -3.0110    -1.1790     1.0390 o          1 IXD      -0.722533
     15 O61          4.4000    -1.2380     0.1360 o          1 IXD      -0.716000
     16 O62          4.5420     0.7690     0.8800 o          1 IXD      -0.716000
     17 H1           0.4920    -0.2940    -1.9940 h2         1 IXD       0.032700
     18 H3          -0.1490     2.0300     0.8710 h1         1 IXD       0.055700
     19 HO3          0.8670     2.9580    -1.0620 ho         1 IXD       0.415000
     20 H4           2.2910     2.0930     0.7560 ha         1 IXD       0.189000
     21 HO1          0.5860    -2.6310    -1.5770 ho         1 IXD       0.427000
     22 H2          -0.4730    -0.3900     0.9190 h1         1 IXD       0.070700
@<TRIPOS>BOND
     1     1     4 1   
     2     1    12 1   
     3     1    13 1   
     4     1    14 1   
     5     2     3 1   
     6     2     8 1   
     7     2    10 1   
     8     2    17 1   
     9     3     4 1   
    10     3     5 1   
    11     3    22 1   
    12     5     6 1   
    13     5     7 1   
    14     5    18 1   
    15     6    19 1   
    16     7     9 2   
    17     7    20 1   
    18     8    21 1   
    19     9    10 1   
    20     9    11 1   
    21    11    15 1   
    22    11    16 1   
@<TRIPOS>SUBSTRUCTURE
     1 IXD         1 TEMP              0 ****  ****    0 ROOT
