@<TRIPOS>MOLECULE
IXE
   34    36     1     0     0
SMALL
No Charge or Current Charge


@<TRIPOS>ATOM
      1 C3           1.7090    -1.1710    -0.1950 ca         1 IXE      -0.006000
      2 C4           2.8860    -0.4170     0.0210 ca         1 IXE      -0.283000
      3 C8           4.1080    -1.0050     0.4030 ca         1 IXE       0.456900
      4 N6           4.2760    -2.3390     0.5790 nv         1 IXE      -1.074900
      5 N5           5.2120    -0.2930     0.6160 nb         1 IXE      -0.349000
      6 C7           5.0820     1.0200     0.4400 ca         1 IXE       0.446900
      7 N4           6.1960     1.7530     0.6550 nv         1 IXE      -1.060900
      8 N3           3.9850     1.6980     0.0810 nb         1 IXE      -0.274000
      9 C5           2.8540     0.9950    -0.1380 ca         1 IXE       0.154000
     10 N2           1.7120     1.6160    -0.4990 nb         1 IXE      -0.132000
     11 C6           0.5920     0.8940    -0.7080 ca         1 IXE       0.131900
     12 C2           0.5260    -0.5090    -0.5740 ca         1 IXE       0.151000
     13 N1          -0.6910    -1.2200    -0.8030 nh         1 IXE      -0.847200
     14 C1          -0.6680    -2.4530    -1.6360 c3         1 IXE       0.219100
     15 C9          -1.9300    -0.7360    -0.3140 ca         1 IXE       0.380000
     16 C10         -1.9810    -0.0530     0.9140 ca         1 IXE      -0.231500
     17 C11         -3.2000     0.4290     1.4120 ca         1 IXE       0.206000
     18 F1          -3.2210     1.0810     2.5960 f          1 IXE      -0.158000
     19 C12         -4.3880     0.2350     0.6900 ca         1 IXE       0.029000
     20 F2          -5.5660     0.7010     1.1710 f          1 IXE      -0.149000
     21 C13         -4.3410    -0.4500    -0.5350 ca         1 IXE       0.206000
     22 F3          -5.4740    -0.6470    -1.2470 f          1 IXE      -0.158000
     23 C14         -3.1230    -0.9340    -1.0330 ca         1 IXE      -0.231500
     24 H1           1.6970    -2.2470    -0.0530 ha         1 IXE       0.116000
     25 H2           3.6120    -2.9710     0.1430 hn         1 IXE       0.502000
     26 H3           5.2280    -2.6840     0.6630 hn         1 IXE       0.502000
     27 H4           6.9620     1.3110     1.1570 hn         1 IXE       0.504000
     28 H5           6.0940     2.7570     0.7770 hn         1 IXE       0.504000
     29 H6          -0.2870     1.4660    -1.0010 h4         1 IXE       0.030100
     30 H7          -1.2970    -3.2330    -1.1860 h1         1 IXE       0.043033
     31 H8          -1.0300    -2.2420    -2.6510 h1         1 IXE       0.043033
     32 H9           0.3460    -2.8640    -1.7260 h1         1 IXE       0.043033
     33 H10         -1.0770     0.0950     1.4960 ha         1 IXE       0.142000
     34 H11         -3.1160    -1.4480    -1.9870 ha         1 IXE       0.142000
@<TRIPOS>BOND
     1     1     2 ar  
     2     1    12 ar  
     3     1    24 1   
     4     2     3 ar  
     5     2     9 ar  
     6     3     4 1   
     7     3     5 ar  
     8     4    25 1   
     9     4    26 1   
    10     5     6 ar  
    11     6     7 1   
    12     6     8 ar  
    13     7    27 1   
    14     7    28 1   
    15     8     9 ar  
    16     9    10 ar  
    17    10    11 ar  
    18    11    12 ar  
    19    11    29 1   
    20    12    13 1   
    21    13    14 1   
    22    13    15 1   
    23    14    30 1   
    24    14    31 1   
    25    14    32 1   
    26    15    16 ar  
    27    15    23 ar  
    28    16    17 ar  
    29    16    33 1   
    30    17    18 1   
    31    17    19 ar  
    32    19    20 1   
    33    19    21 ar  
    34    21    22 1   
    35    21    23 ar  
    36    23    34 1   
@<TRIPOS>SUBSTRUCTURE
     1 IXE         1 TEMP              0 ****  ****    0 ROOT
