@<TRIPOS>MOLECULE
IXE
   34    36     1     0     0
SMALL
bcc


@<TRIPOS>ATOM
      1 C3           1.5790    -1.1370    -0.1480 ca         1 IXE      -0.024000
      2 C4           2.7790    -0.4610     0.0800 ca         1 IXE      -0.413600
      3 C8           3.9460    -1.0270     0.7120 ca         1 IXE       0.785200
      4 N6           3.9630    -2.2960     1.1220 nv         1 IXE      -0.964500
      5 N5           5.0220    -0.2990     0.9100 nb         1 IXE      -0.875000
      6 C7           5.0000     0.9850     0.4980 ca         1 IXE       0.972900
      7 N4           6.1350     1.6730     0.7050 nv         1 IXE      -0.950500
      8 N3           4.0010     1.6130    -0.0980 nb         1 IXE      -0.800000
      9 C5           2.8890     0.8940    -0.3070 ca         1 IXE       0.745300
     10 N2           1.8640     1.5280    -0.9140 nb         1 IXE      -0.658000
     11 C6           0.7570     0.8650    -1.1340 ca         1 IXE       0.460200
     12 C2           0.5450    -0.4750    -0.7680 ca         1 IXE      -0.052700
     13 N1          -0.6800    -1.1140    -1.0530 nh         1 IXE      -0.570400
     14 C1          -0.7500    -1.9930    -2.2040 c3         1 IXE       0.219100
     15 C9          -1.8240    -0.7460    -0.3890 ca         1 IXE       0.241600
     16 C10         -1.7600     0.0410     0.7730 ca         1 IXE      -0.249500
     17 C11         -2.9190     0.3830     1.4300 ca         1 IXE       0.170900
     18 F1          -2.8530     1.1280     2.5360 f          1 IXE      -0.122900
     19 C12         -4.1650    -0.0270     0.9920 ca         1 IXE      -0.006100
     20 F2          -5.2790     0.3150     1.6500 f          1 IXE      -0.113900
     21 C13         -4.2160    -0.8060    -0.1470 ca         1 IXE       0.170900
     22 F3          -5.4110    -1.2110    -0.5830 f          1 IXE      -0.122900
     23 C14         -3.0820    -1.1690    -0.8430 ca         1 IXE      -0.249500
     24 H1           1.4360    -2.1690     0.1500 ha         1 IXE       0.134000
     25 H2           3.2200    -2.9420     0.9300 hn         1 IXE       0.446800
     26 H3           4.8090    -2.6730     1.5150 hn         1 IXE       0.446800
     27 H4           6.8600     1.2770     1.2760 hn         1 IXE       0.448800
     28 H5           6.1490     2.6650     0.5430 hn         1 IXE       0.448800
     29 H6          -0.0460     1.4030    -1.6310 h4         1 IXE       0.030100
     30 H7          -1.2420    -2.9340    -1.9520 h1         1 IXE       0.043033
     31 H8          -1.2830    -1.5370    -3.0430 h1         1 IXE       0.043033
     32 H9           0.2590    -2.2220    -2.5330 h1         1 IXE       0.043033
     33 H10         -0.8170     0.3750     1.1830 ha         1 IXE       0.160000
     34 H11         -3.1990    -1.7720    -1.7310 ha         1 IXE       0.160000
@<TRIPOS>BOND
     1     1     2 ar  
     2     1    12 ar  
     3     1    24 1   
     4     2     3 ar  
     5     2     9 ar  
     6     3     4 1   
     7     3     5 ar  
     8     4    25 1   
     9     4    26 1   
    10     5     6 ar  
    11     6     7 1   
    12     6     8 ar  
    13     7    27 1   
    14     7    28 1   
    15     8     9 ar  
    16     9    10 ar  
    17    10    11 ar  
    18    11    12 ar  
    19    11    29 1   
    20    12    13 1   
    21    13    14 1   
    22    13    15 1   
    23    14    30 1   
    24    14    31 1   
    25    14    32 1   
    26    15    16 ar  
    27    15    23 ar  
    28    16    17 ar  
    29    16    33 1   
    30    17    18 1   
    31    17    19 ar  
    32    19    20 1   
    33    19    21 ar  
    34    21    22 1   
    35    21    23 ar  
    36    23    34 1   
@<TRIPOS>SUBSTRUCTURE
     1 IXE         1 TEMP              0 ****  ****    0 ROOT
