@<TRIPOS>MOLECULE
IXF
   43    45     1     0     0
SMALL
No Charge or Current Charge


@<TRIPOS>ATOM
      1 CAA         -6.9470     0.0930     0.4850 c3         1 IXF      -0.084600
      2 CAV         -5.8410    -0.9850     0.4540 c3         1 IXF      -0.015400
      3 CAB         -6.1670    -2.1090    -0.5540 c3         1 IXF      -0.084600
      4 CAQ         -4.4660    -0.3690     0.1820 ca         1 IXF      -0.081300
      5 CAG         -4.1990     0.3010    -1.0290 ca         1 IXF      -0.092500
      6 CAI         -2.9320     0.8620    -1.2690 ca         1 IXF      -0.128000
      7 CAF         -3.4440    -0.4680     1.1460 ca         1 IXF      -0.092500
      8 CAH         -2.1790     0.0940     0.9020 ca         1 IXF      -0.128000
      9 CAR         -1.9100     0.7630    -0.3070 ca         1 IXF       0.269000
     10 NAW         -0.6290     1.3240    -0.5440 nh         1 IXF      -0.833200
     11 CAC         -0.5410     2.7340    -1.0060 c3         1 IXF       0.209100
     12 CAS          0.5650     0.5660    -0.3350 ca         1 IXF       0.210000
     13 CAK          1.8040     1.1870    -0.0730 ca         1 IXF      -0.096000
     14 C5           2.9570     0.3890     0.1200 ca         1 IXF      -0.244000
     15 C6           4.2290     0.9380     0.3900 ca         1 IXF       0.441900
     16 NAE          4.4690     2.2720     0.4730 nv         1 IXF      -1.078900
     17 N1           5.3110     0.1840     0.5780 nb         1 IXF      -0.342000
     18 C2           5.1090    -1.1300     0.4950 ca         1 IXF       0.418900
     19 NAD          6.2020    -1.9040     0.6810 nv         1 IXF      -1.051900
     20 N3           3.9610    -1.7710     0.2430 nb         1 IXF      -0.261000
     21 C4           2.8510    -1.0270     0.0500 ca         1 IXF       0.121000
     22 NAL          1.6610    -1.6090    -0.2070 nb         1 IXF      -0.121000
     23 CAJ          0.5650    -0.8470    -0.3930 ca         1 IXF       0.112900
     24 H1          -7.0620     0.5730    -0.4940 hc         1 IXF       0.035200
     25 H2          -7.9110    -0.3510     0.7620 hc         1 IXF       0.035200
     26 H3          -6.7070     0.8680     1.2220 hc         1 IXF       0.035200
     27 H4          -5.8300    -1.4500     1.4480 hc         1 IXF       0.049700
     28 H5          -6.2490    -1.7160    -1.5740 hc         1 IXF       0.035200
     29 H6          -5.3810    -2.8740    -0.5430 hc         1 IXF       0.035200
     30 H7          -7.1160    -2.5950    -0.2970 hc         1 IXF       0.035200
     31 H8          -4.9710     0.3860    -1.7900 ha         1 IXF       0.114000
     32 H9          -2.7420     1.3620    -2.2140 ha         1 IXF       0.121000
     33 H10         -3.6270    -0.9780     2.0890 ha         1 IXF       0.114000
     34 H11         -1.4040     0.0170     1.6600 ha         1 IXF       0.121000
     35 H12         -0.1520     3.3790    -0.2070 h1         1 IXF       0.036700
     36 H13          0.1130     2.8110    -1.8850 h1         1 IXF       0.036700
     37 H14         -1.5270     3.1240    -1.2920 h1         1 IXF       0.036700
     38 H15          1.8650     2.2680    -0.0060 ha         1 IXF       0.107000
     39 H16          3.7920     2.9090     0.0670 hn         1 IXF       0.496500
     40 H17          5.4380     2.5790     0.4640 hn         1 IXF       0.496500
     41 H18          7.1150    -1.4590     0.6450 hn         1 IXF       0.489500
     42 H19          6.1570    -2.8810     0.4020 hn         1 IXF       0.489500
     43 H20         -0.3500    -1.3970    -0.6070 h4         1 IXF       0.031100
@<TRIPOS>BOND
     1     1     2 1   
     2     1    24 1   
     3     1    25 1   
     4     1    26 1   
     5     2     3 1   
     6     2     4 1   
     7     2    27 1   
     8     3    28 1   
     9     3    29 1   
    10     3    30 1   
    11     4     5 ar  
    12     4     7 ar  
    13     5     6 ar  
    14     5    31 1   
    15     6     9 ar  
    16     6    32 1   
    17     7     8 ar  
    18     7    33 1   
    19     8     9 ar  
    20     8    34 1   
    21     9    10 1   
    22    10    11 1   
    23    10    12 1   
    24    11    35 1   
    25    11    36 1   
    26    11    37 1   
    27    12    13 ar  
    28    12    23 ar  
    29    13    14 ar  
    30    13    38 1   
    31    14    15 ar  
    32    14    21 ar  
    33    15    16 1   
    34    15    17 ar  
    35    16    39 1   
    36    16    40 1   
    37    17    18 ar  
    38    18    19 1   
    39    18    20 ar  
    40    19    41 1   
    41    19    42 1   
    42    20    21 ar  
    43    21    22 ar  
    44    22    23 ar  
    45    23    43 1   
@<TRIPOS>SUBSTRUCTURE
     1 IXF         1 TEMP              0 ****  ****    0 ROOT
