@<TRIPOS>MOLECULE
IXF
   43    45     1     0     0
SMALL
abcg2


@<TRIPOS>ATOM
      1 CAA         -6.7980     0.1240     0.6330 c3         1 IXF      -0.084600
      2 CAV         -5.7240    -0.9600     0.5430 c3         1 IXF      -0.015400
      3 CAB         -6.1430    -2.0620    -0.4310 c3         1 IXF      -0.084600
      4 CAQ         -4.3800    -0.3800     0.1730 ca         1 IXF      -0.081300
      5 CAG         -4.1780     0.2680    -1.0460 ca         1 IXF      -0.092500
      6 CAI         -2.9420     0.7880    -1.3900 ca         1 IXF      -0.128000
      7 CAF         -3.2950    -0.4730     1.0390 ca         1 IXF      -0.092500
      8 CAH         -2.0570     0.0630     0.7140 ca         1 IXF      -0.128000
      9 CAR         -1.8630     0.6940    -0.5120 ca         1 IXF       0.269000
     10 NAW         -0.6160     1.2500    -0.8770 nh         1 IXF      -0.833200
     11 CAC         -0.5530     2.6890    -1.0230 c3         1 IXF       0.209100
     12 CAS          0.5520     0.5720    -0.5570 ca         1 IXF       0.210000
     13 CAK          1.7220     1.2000    -0.1790 ca         1 IXF      -0.096000
     14 C5           2.8700     0.4320     0.0610 ca         1 IXF      -0.244000
     15 C6           4.1530     0.9620     0.4440 ca         1 IXF       0.441900
     16 NAE          4.3450     2.2770     0.5800 nv         1 IXF      -1.078900
     17 N1           5.1690     0.1630     0.6860 nb         1 IXF      -0.342000
     18 C2           4.9740    -1.1660     0.5550 ca         1 IXF       0.418900
     19 NAD          6.0400    -1.9380     0.8680 nv         1 IXF      -1.051900
     20 N3           3.8620    -1.7690     0.1870 nb         1 IXF      -0.261000
     21 C4           2.8080    -0.9680    -0.0580 ca         1 IXF       0.121000
     22 NAL          1.6630    -1.5700    -0.4420 nb         1 IXF      -0.121000
     23 CAJ          0.6100    -0.8380    -0.6850 ca         1 IXF       0.112900
     24 H1          -6.9760     0.5900    -0.3390 hc         1 IXF       0.035200
     25 H2          -7.7440    -0.2980     0.9730 hc         1 IXF       0.035200
     26 H3          -6.5130     0.9110     1.3320 hc         1 IXF       0.035200
     27 H4          -5.6220    -1.4120     1.5340 hc         1 IXF       0.049700
     28 H5          -6.2890    -1.6660    -1.4380 hc         1 IXF       0.035200
     29 H6          -5.3920    -2.8500    -0.4880 hc         1 IXF       0.035200
     30 H7          -7.0850    -2.5160    -0.1180 hc         1 IXF       0.035200
     31 H8          -4.9910     0.3570    -1.7570 ha         1 IXF       0.114000
     32 H9          -2.8100     1.2660    -2.3540 ha         1 IXF       0.121000
     33 H10         -3.4190    -0.9640     1.9980 ha         1 IXF       0.114000
     34 H11         -1.2400    -0.0110     1.4220 ha         1 IXF       0.121000
     35 H12         -0.3700     3.2040    -0.0730 h1         1 IXF       0.036700
     36 H13          0.2380     2.9650    -1.7210 h1         1 IXF       0.036700
     37 H14         -1.4940     3.0550    -1.4250 h1         1 IXF       0.036700
     38 H15          1.7480     2.2750    -0.0620 ha         1 IXF       0.107000
     39 H16          3.6640     2.9560     0.2910 hn         1 IXF       0.496500
     40 H17          5.2680     2.6180     0.7890 hn         1 IXF       0.496500
     41 H18          6.9450    -1.5010     0.9100 hn         1 IXF       0.489500
     42 H19          6.0230    -2.9020     0.5840 hn         1 IXF       0.489500
     43 H20         -0.2790    -1.3710    -1.0110 h4         1 IXF       0.031100
@<TRIPOS>BOND
     1     1     2 1   
     2     1    24 1   
     3     1    25 1   
     4     1    26 1   
     5     2     3 1   
     6     2     4 1   
     7     2    27 1   
     8     3    28 1   
     9     3    29 1   
    10     3    30 1   
    11     4     5 ar  
    12     4     7 ar  
    13     5     6 ar  
    14     5    31 1   
    15     6     9 ar  
    16     6    32 1   
    17     7     8 ar  
    18     7    33 1   
    19     8     9 ar  
    20     8    34 1   
    21     9    10 1   
    22    10    11 1   
    23    10    12 1   
    24    11    35 1   
    25    11    36 1   
    26    11    37 1   
    27    12    13 ar  
    28    12    23 ar  
    29    13    14 ar  
    30    13    38 1   
    31    14    15 ar  
    32    14    21 ar  
    33    15    16 1   
    34    15    17 ar  
    35    16    39 1   
    36    16    40 1   
    37    17    18 ar  
    38    18    19 1   
    39    18    20 ar  
    40    19    41 1   
    41    19    42 1   
    42    20    21 ar  
    43    21    22 ar  
    44    22    23 ar  
    45    23    43 1   
@<TRIPOS>SUBSTRUCTURE
     1 IXF         1 TEMP              0 ****  ****    0 ROOT
