@<TRIPOS>MOLECULE
IXG
   34    36     1     0     0
SMALL
No Charge or Current Charge


@<TRIPOS>ATOM
      1 CAQ          5.3940    -1.1090    -0.4020 ca         1 IXG      -0.124000
      2 CAG          4.3240    -1.1620    -1.3100 ca         1 IXG      -0.093000
      3 CAI          3.1410    -0.4510    -1.0430 ca         1 IXG      -0.135000
      4 CAF          5.2800    -0.3460     0.7710 ca         1 IXG      -0.093000
      5 CAH          4.0950     0.3650     1.0340 ca         1 IXG      -0.135000
      6 CAR          3.0140     0.3190     0.1310 ca         1 IXG       0.278000
      7 NAW          1.8170     1.0310     0.3920 nh         1 IXG      -0.832200
      8 CAC          1.9060     2.4680     0.7610 c3         1 IXG       0.207100
      9 CAS          0.5370     0.3990     0.2920 ca         1 IXG       0.202000
     10 CAK         -0.6400     1.1360     0.0500 ca         1 IXG      -0.089000
     11 C5          -1.8810     0.4600    -0.0330 ca         1 IXG      -0.248000
     12 C6          -3.0990     1.1290    -0.2780 ca         1 IXG       0.442900
     13 NAE         -3.1990     2.4730    -0.4410 nv         1 IXG      -1.077900
     14 N1          -4.2650     0.4890    -0.3620 nb         1 IXG      -0.342000
     15 C2          -4.2010    -0.8310    -0.1970 ca         1 IXG       0.422900
     16 NAD         -5.3790    -1.4900    -0.2830 nv         1 IXG      -1.055900
     17 N3          -3.1160    -1.5790     0.0400 nb         1 IXG      -0.263000
     18 C4          -1.9240    -0.9520     0.1280 ca         1 IXG       0.124000
     19 NAL         -0.7910    -1.6460     0.3660 nb         1 IXG      -0.123000
     20 CAJ          0.3890    -1.0000     0.4460 ca         1 IXG       0.116900
     21 H1           6.3100    -1.6600    -0.6070 ha         1 IXG       0.116000
     22 H2           4.4110    -1.7520    -2.2210 ha         1 IXG       0.114500
     23 H3           2.3200    -0.4890    -1.7540 ha         1 IXG       0.120500
     24 H4           6.1070    -0.3060     1.4770 ha         1 IXG       0.114500
     25 H5           4.0120     0.9410     1.9510 ha         1 IXG       0.120500
     26 H6           1.5440     3.1020    -0.0600 h1         1 IXG       0.037033
     27 H7           1.3150     2.6720     1.6640 h1         1 IXG       0.037033
     28 H8           2.9430     2.7640     0.9700 h1         1 IXG       0.037033
     29 H9          -0.5880     2.2110    -0.0880 ha         1 IXG       0.107000
     30 H10         -2.4360     3.0550    -0.1120 hn         1 IXG       0.496500
     31 H11         -4.1270     2.8850    -0.4070 hn         1 IXG       0.496500
     32 H12         -6.1720    -0.9980    -0.6860 hn         1 IXG       0.492000
     33 H13         -5.3600    -2.5000    -0.3990 hn         1 IXG       0.492000
     34 H14          1.2500    -1.6330     0.6520 h4         1 IXG       0.031100
@<TRIPOS>BOND
     1     1     2 ar  
     2     1     4 ar  
     3     1    21 1   
     4     2     3 ar  
     5     2    22 1   
     6     3     6 ar  
     7     3    23 1   
     8     4     5 ar  
     9     4    24 1   
    10     5     6 ar  
    11     5    25 1   
    12     6     7 1   
    13     7     8 1   
    14     7     9 1   
    15     8    26 1   
    16     8    27 1   
    17     8    28 1   
    18     9    10 ar  
    19     9    20 ar  
    20    10    11 ar  
    21    10    29 1   
    22    11    12 ar  
    23    11    18 ar  
    24    12    13 1   
    25    12    14 ar  
    26    13    30 1   
    27    13    31 1   
    28    14    15 ar  
    29    15    16 1   
    30    15    17 ar  
    31    16    32 1   
    32    16    33 1   
    33    17    18 ar  
    34    18    19 ar  
    35    19    20 ar  
    36    20    34 1   
@<TRIPOS>SUBSTRUCTURE
     1 IXG         1 TEMP              0 ****  ****    0 ROOT
