@<TRIPOS>MOLECULE
IXG
   34    36     1     0     0
SMALL
bcc


@<TRIPOS>ATOM
      1 CAQ          5.2460    -1.0240    -0.6440 ca         1 IXG      -0.142000
      2 CAG          4.0600    -1.1000    -1.3620 ca         1 IXG      -0.111000
      3 CAI          2.9210    -0.4450    -0.9160 ca         1 IXG      -0.153000
      4 CAF          5.2790    -0.2860     0.5330 ca         1 IXG      -0.111000
      5 CAH          4.1390     0.3520     0.9960 ca         1 IXG      -0.153000
      6 CAR          2.9460     0.2810     0.2750 ca         1 IXG       0.139600
      7 NAW          1.8020     0.9520     0.7560 nh         1 IXG      -0.555400
      8 CAC          1.8890     2.3910     0.9060 c3         1 IXG       0.207100
      9 CAS          0.5450     0.3990     0.5320 ca         1 IXG      -0.001700
     10 CAK         -0.5630     1.1350     0.1670 ca         1 IXG      -0.107000
     11 C5          -1.8000     0.4910     0.0210 ca         1 IXG      -0.378600
     12 C6          -3.0300     1.1400    -0.3530 ca         1 IXG       0.771200
     13 NAE         -3.0750     2.4570    -0.5790 nv         1 IXG      -0.967500
     14 N1          -4.1380     0.4500    -0.5030 nb         1 IXG      -0.868000
     15 C2          -4.0890    -0.8810    -0.2870 ca         1 IXG       0.948900
     16 NAD         -5.2670    -1.5300    -0.4220 nv         1 IXG      -0.945500
     17 N3          -3.0340    -1.5850     0.0710 nb         1 IXG      -0.789000
     18 C4          -1.8880    -0.8970     0.2240 ca         1 IXG       0.715300
     19 NAL         -0.8000    -1.6050     0.5950 nb         1 IXG      -0.649000
     20 CAJ          0.3380    -0.9850     0.7500 ca         1 IXG       0.445200
     21 H1           6.1330    -1.5320    -0.9970 ha         1 IXG       0.134000
     22 H2           4.0210    -1.6620    -2.2860 ha         1 IXG       0.132500
     23 H3           2.0120    -0.4960    -1.5010 ha         1 IXG       0.138500
     24 H4           6.1950    -0.2190     1.1070 ha         1 IXG       0.132500
     25 H5           4.1730     0.9050     1.9270 ha         1 IXG       0.138500
     26 H6           1.7010     2.9260    -0.0320 h1         1 IXG       0.037033
     27 H7           1.1720     2.7360     1.6500 h1         1 IXG       0.037033
     28 H8           2.8820     2.6650     1.2500 h1         1 IXG       0.037033
     29 H9          -0.4700     2.1980    -0.0130 ha         1 IXG       0.125000
     30 H10         -2.3130     3.0680    -0.3500 hn         1 IXG       0.441300
     31 H11         -3.9630     2.8890    -0.7700 hn         1 IXG       0.441300
     32 H12         -6.0160    -1.0640    -0.9040 hn         1 IXG       0.436800
     33 H13         -5.2540    -2.5340    -0.4710 hn         1 IXG       0.436800
     34 H14          1.1770    -1.5960     1.0710 h4         1 IXG       0.031100
@<TRIPOS>BOND
     1     1     2 ar  
     2     1     4 ar  
     3     1    21 1   
     4     2     3 ar  
     5     2    22 1   
     6     3     6 ar  
     7     3    23 1   
     8     4     5 ar  
     9     4    24 1   
    10     5     6 ar  
    11     5    25 1   
    12     6     7 1   
    13     7     8 1   
    14     7     9 1   
    15     8    26 1   
    16     8    27 1   
    17     8    28 1   
    18     9    10 ar  
    19     9    20 ar  
    20    10    11 ar  
    21    10    29 1   
    22    11    12 ar  
    23    11    18 ar  
    24    12    13 1   
    25    12    14 ar  
    26    13    30 1   
    27    13    31 1   
    28    14    15 ar  
    29    15    16 1   
    30    15    17 ar  
    31    16    32 1   
    32    16    33 1   
    33    17    18 ar  
    34    18    19 ar  
    35    19    20 ar  
    36    20    34 1   
@<TRIPOS>SUBSTRUCTURE
     1 IXG         1 TEMP              0 ****  ****    0 ROOT
