@<TRIPOS>MOLECULE
IXI
   51    54     1     0     0
SMALL
abcg2


@<TRIPOS>ATOM
      1 N3          93.0060    -7.3990    15.1600 nb         1 IXI      -0.680000
      2 C4          92.1400    -8.4110    15.1080 ca         1 IXI       0.294500
      3 C5          91.0860    -8.5550    16.0130 ca         1 IXI      -0.063300
      4 C6          90.9970    -7.5600    16.9920 ca         1 IXI      -0.093000
      5 C7          90.0690    -9.6570    16.0140 c3         1 IXI      -0.041800
      6 C10         95.3330    -9.4380    11.7720 ca         1 IXI      -0.173600
      7 C13         93.8830   -11.3320    10.3590 ca         1 IXI       0.116400
      8 C22         98.2860    -7.7190    13.3630 c3         1 IXI       0.094300
      9 C24         93.0200   -14.0970     7.3060 ca         1 IXI      -0.080500
     10 C26         94.0130   -15.4580     5.5880 ca         1 IXI      -0.094000
     11 C28         95.3910   -13.9920     6.9090 ca         1 IXI      -0.080500
     12 C1          91.9010    -6.5220    17.0440 ca         1 IXI      -0.143000
     13 C2          92.9170    -6.4660    16.0900 ca         1 IXI       0.361300
     14 C9          93.9810    -9.7190    12.1220 ca         1 IXI       0.009000
     15 C11         95.9450   -10.0910    10.7100 ca         1 IXI      -0.071000
     16 C12         93.2590   -10.6710    11.4140 ca         1 IXI      -0.088000
     17 C14         95.2090   -11.0370    10.0190 ca         1 IXI      -0.116200
     18 N15         95.4850   -11.8450     8.9500 na         1 IXI      -0.307600
     19 C16         94.3650   -12.5730     8.6940 cc         1 IXI       0.483400
     20 N17         93.3860   -12.2890     9.5190 nd         1 IXI      -0.576100
     21 N18         93.4210    -9.0180    13.1930 ns         1 IXI      -0.139000
     22 N20         97.3970    -8.6660    12.7310 ns         1 IXI      -0.500900
     23 O21         95.6040    -7.3190    12.8380 o          1 IXI      -0.612100
     24 C23         94.2710   -13.5620     7.6210 ca         1 IXI      -0.117900
     25 C25         92.8940   -15.0380     6.2980 ca         1 IXI      -0.114500
     26 C27         95.2600   -14.9330     5.8980 ca         1 IXI      -0.114500
     27 C29         92.4010    -9.3960    13.9970 c          1 IXI       0.515600
     28 O30         91.7510   -10.4180    13.8660 o          1 IXI      -0.591100
     29 H1          90.1990    -7.6150    17.7230 ha         1 IXI       0.119000
     30 H2          90.5230   -10.6330    16.1760 hc         1 IXI       0.054033
     31 H3          89.3470    -9.4860    16.8120 hc         1 IXI       0.054033
     32 H4          89.5220    -9.7100    15.0730 hc         1 IXI       0.054033
     33 H5          94.6580    -5.5130    15.2920 hc         1 IXI       0.055033
     34 H6          93.4550    -4.3940    15.9460 hc         1 IXI       0.055033
     35 H7          94.4640    -5.3230    17.0390 hc         1 IXI       0.055033
     36 H8          99.2800    -8.1550    13.4020 h1         1 IXI       0.041033
     37 H9          98.3400    -6.7880    12.7990 h1         1 IXI       0.041033
     38 H10         97.9720    -7.4850    14.3810 h1         1 IXI       0.041033
     39 H11         92.1470   -13.7700     7.8540 ha         1 IXI       0.122500
     40 H12         93.9130   -16.1920     4.8000 ha         1 IXI       0.116000
     41 H13         96.3790   -13.6130     7.1360 ha         1 IXI       0.122500
     42 H14         91.8230    -5.7600    17.8090 ha         1 IXI       0.124000
     43 H15         96.9590    -9.8520    10.4160 ha         1 IXI       0.117000
     44 H16         92.2340   -10.8950    11.6570 ha         1 IXI       0.163000
     45 H17         96.3520   -11.8630     8.4350 hn         1 IXI       0.357000
     46 H19         93.8770    -8.1510    13.4640 hn         1 IXI       0.214000
     47 H20         97.7480    -9.5900    12.5390 hn         1 IXI       0.319500
     48 H21         91.9180   -15.4430     6.0630 ha         1 IXI       0.117000
     49 H22         96.1370   -15.2590     5.3560 ha         1 IXI       0.117000
     50 C8          93.9310    -5.3650    16.0880 c3         1 IXI      -0.148400
     51 C19         96.1110    -8.3860    12.4950 c          1 IXI       0.612700
@<TRIPOS>BOND
     1     1     2 ar  
     2     1    13 ar  
     3     2     3 ar  
     4     2    27 1   
     5     3     4 ar  
     6     3     5 1   
     7     4    12 ar  
     8     4    29 1   
     9     5    30 1   
    10     5    31 1   
    11     5    32 1   
    12     6    14 ar  
    13     6    15 ar  
    14     6    51 1   
    15     7    16 ar  
    16     7    17 ar  
    17     7    20 1   
    18     8    22 1   
    19     8    36 1   
    20     8    37 1   
    21     8    38 1   
    22     9    24 ar  
    23     9    25 ar  
    24     9    39 1   
    25    10    25 ar  
    26    10    26 ar  
    27    10    40 1   
    28    11    24 ar  
    29    11    26 ar  
    30    11    41 1   
    31    12    13 ar  
    32    12    42 1   
    33    13    50 1   
    34    14    16 ar  
    35    14    21 1   
    36    15    17 ar  
    37    15    43 1   
    38    16    44 1   
    39    17    18 1   
    40    18    19 1   
    41    18    45 1   
    42    19    20 2   
    43    19    24 1   
    44    21    27 1   
    45    21    46 1   
    46    22    47 1   
    47    22    51 1   
    48    23    51 2   
    49    25    48 1   
    50    26    49 1   
    51    27    28 2   
    52    33    50 1   
    53    34    50 1   
    54    35    50 1   
@<TRIPOS>SUBSTRUCTURE
     1 IXI         1 TEMP              0 ****  ****    0 ROOT
