@<TRIPOS>MOLECULE
IXI
   51    54     1     0     0
SMALL
No Charge or Current Charge


@<TRIPOS>ATOM
      1 N3          92.8890    -7.2570    15.2240 nb         1 IXI      -0.680000
      2 C4          92.0530    -8.3430    15.1990 ca         1 IXI       0.294500
      3 C5          90.9650    -8.4460    16.1240 ca         1 IXI      -0.063300
      4 C6          90.7720    -7.4100    17.0610 ca         1 IXI      -0.093000
      5 C7          89.9930    -9.6250    16.1600 c3         1 IXI      -0.041800
      6 C10         95.4590    -9.5940    11.9270 ca         1 IXI      -0.173600
      7 C13         93.9200   -11.4000    10.4080 ca         1 IXI       0.116400
      8 C22         98.6640    -7.8200    13.1610 c3         1 IXI       0.094300
      9 C24         93.0140   -14.2280     7.2880 ca         1 IXI      -0.080500
     10 C26         94.0070   -15.3910     5.3940 ca         1 IXI      -0.094000
     11 C28         95.3470   -13.8470     6.7180 ca         1 IXI      -0.080500
     12 C1          91.6460    -6.3160    17.0620 ca         1 IXI      -0.143000
     13 C2          92.6910    -6.2790    16.1300 ca         1 IXI       0.361300
     14 C9          94.0830    -9.8390    12.2650 ca         1 IXI       0.009000
     15 C11         96.0280   -10.2880    10.8220 ca         1 IXI      -0.071000
     16 C12         93.3170   -10.7440    11.4820 ca         1 IXI      -0.088000
     17 C14         95.2230   -11.1740    10.1050 ca         1 IXI      -0.116200
     18 N15         95.5120   -11.9410     9.0180 na         1 IXI      -0.307600
     19 C16         94.3480   -12.6310     8.6820 cc         1 IXI       0.483400
     20 N17         93.3450   -12.3110     9.5280 nd         1 IXI      -0.576100
     21 N18         93.4910    -9.1630    13.3720 ns         1 IXI      -0.139000
     22 N20         97.6800    -8.6900    12.5120 ns         1 IXI      -0.500900
     23 O21         95.8550    -7.7710    13.4710 o          1 IXI      -0.612100
     24 C23         94.2390   -13.5730     7.5560 ca         1 IXI      -0.117900
     25 C25         92.9000   -15.1300     6.2160 ca         1 IXI      -0.114500
     26 C27         95.2290   -14.7490     5.6460 ca         1 IXI      -0.114500
     27 C29         92.3500    -9.4160    14.1300 c          1 IXI       0.515600
     28 O30         91.6620   -10.4200    13.9540 o          1 IXI      -0.591100
     29 H1          89.9570    -7.4510    17.7810 ha         1 IXI       0.119000
     30 H2          90.5180   -10.5700    16.3420 hc         1 IXI       0.054033
     31 H3          89.2480    -9.5170    16.9580 hc         1 IXI       0.054033
     32 H4          89.4390    -9.7130    15.2170 hc         1 IXI       0.054033
     33 H5          94.6490    -5.4300    15.7220 hc         1 IXI       0.055033
     34 H6          93.2920    -4.3300    15.4140 hc         1 IXI       0.055033
     35 H7          93.7990    -4.6750    17.0770 hc         1 IXI       0.055033
     36 H8          99.6730    -8.0960    12.8270 h1         1 IXI       0.041033
     37 H9          98.4680    -6.7740    12.8920 h1         1 IXI       0.041033
     38 H10         98.5990    -7.9360    14.2500 h1         1 IXI       0.041033
     39 H11         92.1420   -14.0410     7.9120 ha         1 IXI       0.122500
     40 H12         93.9180   -16.0890     4.5640 ha         1 IXI       0.116000
     41 H13         96.3070   -13.3660     6.8880 ha         1 IXI       0.122500
     42 H14         91.5160    -5.5050    17.7730 ha         1 IXI       0.124000
     43 H15         97.0570   -10.1370    10.5050 ha         1 IXI       0.117000
     44 H16         92.2680   -10.9350    11.6790 ha         1 IXI       0.163000
     45 H17         96.3980   -12.0070     8.5370 hn         1 IXI       0.357000
     46 H19         93.9970    -8.3340    13.6690 hn         1 IXI       0.214000
     47 H20         98.0110    -9.4180    11.8930 hn         1 IXI       0.319500
     48 H21         91.9510   -15.6260     6.0220 ha         1 IXI       0.117000
     49 H22         96.0880   -14.9510     5.0100 ha         1 IXI       0.117000
     50 C8          93.6620    -5.1160    16.0830 c3         1 IXI      -0.148400
     51 C19         96.3190    -8.6120    12.7150 c          1 IXI       0.612700
@<TRIPOS>BOND
     1     1     2 ar  
     2     1    13 ar  
     3     2     3 ar  
     4     2    27 1   
     5     3     4 ar  
     6     3     5 1   
     7     4    12 ar  
     8     4    29 1   
     9     5    30 1   
    10     5    31 1   
    11     5    32 1   
    12     6    14 ar  
    13     6    15 ar  
    14     6    51 1   
    15     7    16 ar  
    16     7    17 ar  
    17     7    20 1   
    18     8    22 1   
    19     8    36 1   
    20     8    37 1   
    21     8    38 1   
    22     9    24 ar  
    23     9    25 ar  
    24     9    39 1   
    25    10    25 ar  
    26    10    26 ar  
    27    10    40 1   
    28    11    24 ar  
    29    11    26 ar  
    30    11    41 1   
    31    12    13 ar  
    32    12    42 1   
    33    13    50 1   
    34    14    16 ar  
    35    14    21 1   
    36    15    17 ar  
    37    15    43 1   
    38    16    44 1   
    39    17    18 1   
    40    18    19 1   
    41    18    45 1   
    42    19    20 2   
    43    19    24 1   
    44    21    27 1   
    45    21    46 1   
    46    22    47 1   
    47    22    51 1   
    48    23    51 2   
    49    25    48 1   
    50    26    49 1   
    51    27    28 2   
    52    33    50 1   
    53    34    50 1   
    54    35    50 1   
@<TRIPOS>SUBSTRUCTURE
     1 IXI         1 TEMP              0 ****  ****    0 ROOT
