@<TRIPOS>MOLECULE
IXJ
   85    85     1     0     0
SMALL
abcg2


@<TRIPOS>ATOM
      1 N1          -0.9940     0.8760    -9.3220 n8         1 IXJ      -1.003200
      2 C7          -8.3960     4.8030   -13.4610 c3         1 IXJ       0.036700
      3 C8          -8.7320     5.1530   -12.0020 c3         1 IXJ      -0.088400
      4 N2          -6.9680     4.5920   -13.6470 ns         1 IXJ      -0.482900
      5 C9          -8.2590     4.1170   -10.9830 c3         1 IXJ      -0.069400
      6 C1          -4.8980     3.2740   -13.7120 c3         1 IXJ       0.029700
      7 C5          -1.2770     1.3690   -10.6780 c3         1 IXJ       0.148800
      8 C6          -6.4220     3.3770   -13.8310 c          1 IXJ       0.596100
      9 N3          -9.0140     0.4370   -10.2380 n8         1 IXJ      -0.994200
     10 C4          -2.7380     1.7710   -10.8180 c3         1 IXJ      -0.078400
     11 O4          -7.0790     2.3560   -14.0260 o          1 IXJ      -0.619100
     12 C3          -3.0800     2.2920   -12.2100 c3         1 IXJ      -0.075400
     13 C2          -4.5460     2.6930   -12.3340 c3         1 IXJ      -0.088400
     14 N           -4.1950     4.5210   -13.9360 ns         1 IXJ      -0.512900
     15 C           -3.4660     4.7760   -15.0420 c          1 IXJ       0.624100
     16 O           -3.3790     3.9770   -15.9770 o          1 IXJ      -0.604100
     17 C10         -8.9430     2.7550   -11.0840 c3         1 IXJ      -0.085400
     18 C11         -8.3510     1.7440   -10.1110 c3         1 IXJ       0.152800
     19 C12         -8.8510     5.9440   -14.3760 c          1 IXJ       0.591100
     20 C13         -9.8800     4.3920   -16.1000 c3         1 IXJ       0.103000
     21 C14         -9.1370     4.3270   -17.4360 c3         1 IXJ      -0.099400
     22 C15         -7.6380     4.5720   -17.3010 c3         1 IXJ      -0.079400
     23 C16         -6.8810     4.4160   -18.6150 c3         1 IXJ      -0.058400
     24 C17         -5.4210     4.8790   -18.5240 c3         1 IXJ       0.073500
     25 C19         -5.3520     6.4270   -18.3950 c          1 IXJ       0.696000
     26 C20         -2.7770     6.1260   -15.0790 c3         1 IXJ      -0.125100
     27 C21         -1.3120     6.0110   -15.4240 ca         1 IXJ      -0.061300
     28 C22         -0.4540     5.2660   -14.6120 ca         1 IXJ      -0.097500
     29 C23          0.8960     5.1530   -14.9230 ca         1 IXJ      -0.118500
     30 C24          1.4090     5.7870   -16.0520 ca         1 IXJ      -0.120000
     31 C25          0.5620     6.5330   -16.8640 ca         1 IXJ      -0.118500
     32 C29         -0.7900     6.6430   -16.5500 ca         1 IXJ      -0.097500
     33 N5          -4.6970     4.3620   -19.6820 nu         1 IXJ      -0.866400
     34 N6          -2.6170     4.8390   -18.7530 nv         1 IXJ      -1.097200
     35 N7          -2.8850     4.5830   -21.0910 n2         1 IXJ      -0.962100
     36 O2          -5.2760     6.8890   -17.2270 o          1 IXJ      -0.734000
     37 H1          -0.0180     0.6050    -9.2510 hn         1 IXJ       0.388500
     38 H2          -1.1210     1.6340    -8.6570 hn         1 IXJ       0.388500
     39 H4          -8.8770     3.8710   -13.7300 h1         1 IXJ       0.088700
     40 H5          -8.2830     6.1210   -11.7740 hc         1 IXJ       0.055700
     41 H6          -9.8170     5.2810   -11.9320 hc         1 IXJ       0.055700
     42 H7          -6.3570     5.3810   -13.4980 hn         1 IXJ       0.334500
     43 H8          -7.1780     3.9870   -11.0790 hc         1 IXJ       0.032700
     44 H9          -8.4250     4.5270    -9.9830 hc         1 IXJ       0.032700
     45 H10         -4.5820     2.5830   -14.4920 h1         1 IXJ       0.116700
     46 H11         -1.0530     0.5630   -11.3830 h1         1 IXJ       0.030200
     47 H12         -0.6430     2.2220   -10.9600 h1         1 IXJ       0.030200
     48 H13         -8.5920    -0.2260    -9.5950 hn         1 IXJ       0.386500
     49 H14         -9.9850     0.5220    -9.9510 hn         1 IXJ       0.386500
     50 H16         -2.9670     2.5450   -10.0760 hc         1 IXJ       0.043200
     51 H17         -3.3700     0.9090   -10.5770 hc         1 IXJ       0.043200
     52 H18         -2.8540     1.5240   -12.9580 hc         1 IXJ       0.046700
     53 H19         -2.4430     3.1510   -12.4430 hc         1 IXJ       0.046700
     54 H20         -4.7970     3.4360   -11.5690 hc         1 IXJ       0.050200
     55 H21         -5.1870     1.8270   -12.1570 hc         1 IXJ       0.050200
     56 H22         -9.9050     6.4870   -15.9560 hn         1 IXJ       0.312500
     57 H23         -4.1110     5.1630   -13.1620 hn         1 IXJ       0.305500
     58 H24        -10.0150     2.8680   -10.8840 hc         1 IXJ       0.055200
     59 H25         -8.8480     2.3550   -12.0960 hc         1 IXJ       0.055200
     60 H26         -7.2910     1.6050   -10.3410 h1         1 IXJ       0.023200
     61 H27         -8.4040     2.1500    -9.0910 h1         1 IXJ       0.023200
     62 H28        -10.9520     4.2690   -16.2600 h1         1 IXJ       0.045700
     63 H29         -9.5530     3.5800   -15.4550 h1         1 IXJ       0.045700
     64 H30         -9.5670     5.0650   -18.1220 hc         1 IXJ       0.040200
     65 H31         -9.3270     3.3430   -17.8750 hc         1 IXJ       0.040200
     66 H32         -7.2190     3.8810   -16.5630 hc         1 IXJ       0.057700
     67 H33         -7.4700     5.5760   -16.9100 hc         1 IXJ       0.057700
     68 H34         -7.3810     4.9810   -19.4090 hc         1 IXJ       0.029700
     69 H35         -6.8890     3.3650   -18.9200 hc         1 IXJ       0.029700
     70 H36         -4.9880     4.4480   -17.6230 h1         1 IXJ       0.055700
     71 H37         -2.9040     6.6410   -14.1250 hc         1 IXJ       0.099200
     72 H38         -3.3070     6.7050   -15.8400 hc         1 IXJ       0.099200
     73 H39         -0.8470     4.7680   -13.7330 ha         1 IXJ       0.123500
     74 H40          1.5480     4.5690   -14.2840 ha         1 IXJ       0.105500
     75 H41          2.4600     5.6990   -16.2960 ha         1 IXJ       0.101000
     76 H42          0.9510     7.0290   -17.7440 ha         1 IXJ       0.105500
     77 H43         -1.4490     7.2160   -17.1900 ha         1 IXJ       0.123500
     78 H44         -5.2080     4.4300   -20.5510 hn         1 IXJ       0.468000
     79 H45         -2.9510     4.5540   -17.8370 hn         1 IXJ       0.471000
     80 H46         -1.6160     4.8230   -18.8600 hn         1 IXJ       0.471000
     81 H47         -1.8740     4.6870   -21.0740 hn         1 IXJ       0.342400
     82 O3          -8.5050     7.1010   -14.1210 o          1 IXJ      -0.610100
     83 N4          -9.6570     5.6650   -15.4170 ns         1 IXJ      -0.490900
     84 C18         -3.3550     4.5980   -19.8800 c2         1 IXJ       0.832100
     85 O1          -5.4030     7.0920   -19.4580 o          1 IXJ      -0.734000
@<TRIPOS>BOND
     1     1     7 1   
     2     1    37 1   
     3     1    38 1   
     4     2     3 1   
     5     2     4 1   
     6     2    19 1   
     7     2    39 1   
     8     3     5 1   
     9     3    40 1   
    10     3    41 1   
    11     4     8 1   
    12     4    42 1   
    13     5    17 1   
    14     5    43 1   
    15     5    44 1   
    16     6     8 1   
    17     6    13 1   
    18     6    14 1   
    19     6    45 1   
    20     7    10 1   
    21     7    46 1   
    22     7    47 1   
    23     8    11 2   
    24     9    18 1   
    25     9    48 1   
    26     9    49 1   
    27    10    12 1   
    28    10    50 1   
    29    10    51 1   
    30    12    13 1   
    31    12    52 1   
    32    12    53 1   
    33    13    54 1   
    34    13    55 1   
    35    14    15 1   
    36    14    57 1   
    37    15    16 2   
    38    15    26 1   
    39    17    18 1   
    40    17    58 1   
    41    17    59 1   
    42    18    60 1   
    43    18    61 1   
    44    19    82 2   
    45    19    83 1   
    46    20    21 1   
    47    20    62 1   
    48    20    63 1   
    49    20    83 1   
    50    21    22 1   
    51    21    64 1   
    52    21    65 1   
    53    22    23 1   
    54    22    66 1   
    55    22    67 1   
    56    23    24 1   
    57    23    68 1   
    58    23    69 1   
    59    24    25 1   
    60    24    33 1   
    61    24    70 1   
    62    25    36 1   
    63    25    85 1   
    64    26    27 1   
    65    26    71 1   
    66    26    72 1   
    67    27    28 ar  
    68    27    32 ar  
    69    28    29 ar  
    70    28    73 1   
    71    29    30 ar  
    72    29    74 1   
    73    30    31 ar  
    74    30    75 1   
    75    31    32 ar  
    76    31    76 1   
    77    32    77 1   
    78    33    78 1   
    79    33    84 1   
    80    34    79 1   
    81    34    80 1   
    82    34    84 1   
    83    35    81 1   
    84    35    84 2   
    85    56    83 1   
@<TRIPOS>SUBSTRUCTURE
     1 IXJ         1 TEMP              0 ****  ****    0 ROOT
