@<TRIPOS>MOLECULE
IXJ
   85    85     1     0     0
SMALL
No Charge or Current Charge


@<TRIPOS>ATOM
      1 N1           0.2080     0.7870   -10.9790 n8         1 IXJ      -1.003200
      2 C7          -8.5500     4.6770   -13.4340 c3         1 IXJ       0.036700
      3 C8          -8.7110     5.2770   -12.0100 c3         1 IXJ      -0.088400
      4 N2          -7.1300     4.3880   -13.7400 ns         1 IXJ      -0.482900
      5 C9          -8.3000     4.3470   -10.8400 c3         1 IXJ      -0.069400
      6 C1          -5.0160     3.0640   -13.9780 c3         1 IXJ       0.029700
      7 C5          -0.4700     1.4470   -12.1110 c3         1 IXJ       0.148800
      8 C6          -6.5480     3.1340   -13.6980 c          1 IXJ       0.596100
      9 N3          -9.7250     1.1120    -9.2540 n8         1 IXJ      -0.994200
     10 C4          -1.9880     1.5750   -11.8650 c3         1 IXJ      -0.078400
     11 O4          -7.2090     2.1320   -13.4640 o          1 IXJ      -0.619100
     12 C3          -2.7250     2.2540   -13.0400 c3         1 IXJ      -0.075400
     13 C2          -4.2440     2.4280   -12.7900 c3         1 IXJ      -0.088400
     14 N           -4.4270     4.3840   -14.3240 ns         1 IXJ      -0.512900
     15 C           -3.6020     4.5970   -15.4100 c          1 IXJ       0.624100
     16 O           -3.4410     3.7560   -16.2830 o          1 IXJ      -0.604100
     17 C10         -9.2240     3.1220   -10.6440 c3         1 IXJ      -0.085400
     18 C11         -8.8120     2.2530    -9.4390 c3         1 IXJ       0.152800
     19 C12         -9.1480     5.6090   -14.5340 c          1 IXJ       0.591100
     20 C13         -9.6510     3.7180   -16.1330 c3         1 IXJ       0.103000
     21 C14         -8.8900     3.8250   -17.4730 c3         1 IXJ      -0.099400
     22 C15         -7.5510     4.5980   -17.3890 c3         1 IXJ      -0.079400
     23 C16         -6.7380     4.5540   -18.7020 c3         1 IXJ      -0.058400
     24 C17         -5.4560     5.4260   -18.6540 c3         1 IXJ       0.073500
     25 C19         -5.7740     6.9740   -18.6050 c          1 IXJ       0.696000
     26 C20         -2.8690     5.9360   -15.4120 c3         1 IXJ      -0.125100
     27 C21         -1.4740     5.7570   -14.8230 ca         1 IXJ      -0.061300
     28 C22         -1.2460     5.9750   -13.4500 ca         1 IXJ      -0.097500
     29 C23          0.0340     5.7750   -12.9030 ca         1 IXJ      -0.118500
     30 C24          1.0930     5.3570   -13.7260 ca         1 IXJ      -0.120000
     31 C25          0.8720     5.1390   -15.0960 ca         1 IXJ      -0.118500
     32 C29         -0.4080     5.3370   -15.6430 ca         1 IXJ      -0.097500
     33 N5          -4.5370     5.0400   -19.7720 nu         1 IXJ      -0.866400
     34 N6          -2.6010     4.9680   -19.1530 nv         1 IXJ      -1.097200
     35 N7          -3.0500     5.8180   -21.1240 n2         1 IXJ      -0.962100
     36 O2          -5.2960     7.6320   -17.6900 o          1 IXJ      -0.734000
     37 H1           1.2200     0.7820   -11.1540 hn         1 IXJ       0.388500
     38 H2           0.1100     1.3760   -10.1440 hn         1 IXJ       0.388500
     39 H4          -9.1290     3.7470   -13.4620 h1         1 IXJ       0.088700
     40 H5          -8.1150     6.1970   -11.9460 hc         1 IXJ       0.055700
     41 H6          -9.7560     5.5790   -11.8660 hc         1 IXJ       0.055700
     42 H7          -6.5210     5.1600   -13.9800 hn         1 IXJ       0.334500
     43 H8          -7.2650     4.0100   -10.9800 hc         1 IXJ       0.032700
     44 H9          -8.3080     4.9380    -9.9150 hc         1 IXJ       0.032700
     45 H10         -4.9210     2.3960   -14.8430 h1         1 IXJ       0.116700
     46 H11         -0.2910     0.8580   -13.0210 h1         1 IXJ       0.030200
     47 H12         -0.0330     2.4460   -12.2520 h1         1 IXJ       0.030200
     48 H13         -9.4490     0.5970    -8.4090 hn         1 IXJ       0.386500
     49 H14        -10.6610     1.4670    -9.0250 hn         1 IXJ       0.386500
     50 H16         -2.1590     2.1560   -10.9500 hc         1 IXJ       0.043200
     51 H17         -2.4150     0.5780   -11.7000 hc         1 IXJ       0.043200
     52 H18         -2.5740     1.6620   -13.9510 hc         1 IXJ       0.046700
     53 H19         -2.2650     3.2330   -13.2150 hc         1 IXJ       0.046700
     54 H20         -4.3940     3.0460   -11.8950 hc         1 IXJ       0.050200
     55 H21         -4.6790     1.4460   -12.5700 hc         1 IXJ       0.050200
     56 H22        -10.4010     5.7000   -16.1110 hn         1 IXJ       0.312500
     57 H23         -4.4230     5.1090   -13.6150 hn         1 IXJ       0.305500
     58 H24        -10.2550     3.4690   -10.5050 hc         1 IXJ       0.055200
     59 H25         -9.2110     2.5010   -11.5470 hc         1 IXJ       0.055200
     60 H26         -7.7940     1.8680    -9.5910 h1         1 IXJ       0.023200
     61 H27         -8.8210     2.8610    -8.5230 h1         1 IXJ       0.023200
     62 H28        -10.6150     3.2220   -16.3060 h1         1 IXJ       0.045700
     63 H29         -9.0730     3.0840   -15.4520 h1         1 IXJ       0.045700
     64 H30         -9.5370     4.3120   -18.2130 hc         1 IXJ       0.040200
     65 H31         -8.6990     2.8100   -17.8420 hc         1 IXJ       0.040200
     66 H32         -6.9390     4.1770   -16.5820 hc         1 IXJ       0.057700
     67 H33         -7.7540     5.6440   -17.1270 hc         1 IXJ       0.057700
     68 H34         -7.3680     4.8700   -19.5420 hc         1 IXJ       0.029700
     69 H35         -6.4570     3.5100   -18.8920 hc         1 IXJ       0.029700
     70 H36         -4.9540     5.1980   -17.7080 h1         1 IXJ       0.055700
     71 H37         -3.4250     6.6620   -14.8090 hc         1 IXJ       0.099200
     72 H38         -2.7950     6.2950   -16.4440 hc         1 IXJ       0.099200
     73 H39         -2.0600     6.2930   -12.8020 ha         1 IXJ       0.123500
     74 H40          0.2030     5.9420   -11.8420 ha         1 IXJ       0.105500
     75 H41          2.0830     5.2020   -13.3020 ha         1 IXJ       0.101000
     76 H42          1.6910     4.8130   -15.7340 ha         1 IXJ       0.105500
     77 H43         -0.5730     5.1570   -16.7030 ha         1 IXJ       0.123500
     78 H44         -4.9820     5.0050   -20.6800 hn         1 IXJ       0.468000
     79 H45         -3.2220     4.4680   -18.5330 hn         1 IXJ       0.471000
     80 H46         -2.0220     4.3390   -19.6820 hn         1 IXJ       0.471000
     81 H47         -2.0280     5.8950   -21.1380 hn         1 IXJ       0.342400
     82 O3          -9.0630     6.8280   -14.4830 o          1 IXJ      -0.610100
     83 N4          -9.9090     5.0330   -15.5300 ns         1 IXJ      -0.490900
     84 C18         -3.3750     5.6220   -19.9480 c2         1 IXJ       0.832100
     85 O1          -6.4380     7.4740   -19.5060 o          1 IXJ      -0.734000
@<TRIPOS>BOND
     1     1     7 1   
     2     1    37 1   
     3     1    38 1   
     4     2     3 1   
     5     2     4 1   
     6     2    19 1   
     7     2    39 1   
     8     3     5 1   
     9     3    40 1   
    10     3    41 1   
    11     4     8 1   
    12     4    42 1   
    13     5    17 1   
    14     5    43 1   
    15     5    44 1   
    16     6     8 1   
    17     6    13 1   
    18     6    14 1   
    19     6    45 1   
    20     7    10 1   
    21     7    46 1   
    22     7    47 1   
    23     8    11 2   
    24     9    18 1   
    25     9    48 1   
    26     9    49 1   
    27    10    12 1   
    28    10    50 1   
    29    10    51 1   
    30    12    13 1   
    31    12    52 1   
    32    12    53 1   
    33    13    54 1   
    34    13    55 1   
    35    14    15 1   
    36    14    57 1   
    37    15    16 2   
    38    15    26 1   
    39    17    18 1   
    40    17    58 1   
    41    17    59 1   
    42    18    60 1   
    43    18    61 1   
    44    19    82 2   
    45    19    83 1   
    46    20    21 1   
    47    20    62 1   
    48    20    63 1   
    49    20    83 1   
    50    21    22 1   
    51    21    64 1   
    52    21    65 1   
    53    22    23 1   
    54    22    66 1   
    55    22    67 1   
    56    23    24 1   
    57    23    68 1   
    58    23    69 1   
    59    24    25 1   
    60    24    33 1   
    61    24    70 1   
    62    25    36 1   
    63    25    85 1   
    64    26    27 1   
    65    26    71 1   
    66    26    72 1   
    67    27    28 ar  
    68    27    32 ar  
    69    28    29 ar  
    70    28    73 1   
    71    29    30 ar  
    72    29    74 1   
    73    30    31 ar  
    74    30    75 1   
    75    31    32 ar  
    76    31    76 1   
    77    32    77 1   
    78    33    78 1   
    79    33    84 1   
    80    34    79 1   
    81    34    80 1   
    82    34    84 1   
    83    35    81 1   
    84    35    84 2   
    85    56    83 1   
@<TRIPOS>SUBSTRUCTURE
     1 IXJ         1 TEMP              0 ****  ****    0 ROOT
