@<TRIPOS>MOLECULE
IXL
   57    61     1     0     0
SMALL
No Charge or Current Charge


@<TRIPOS>ATOM
      1 C4          92.9060   -10.3270    11.7800 c6         1 IXL      -0.124700
      2 C5          93.6440   -11.1040    10.7230 cc         1 IXL       0.414800
      3 C7          95.3510   -11.8330     9.4940 cc         1 IXL      -0.212000
      4 C8          94.1660   -12.3700     9.0340 cd         1 IXL       0.299500
      5 C10         93.9170   -13.3130     7.8950 ca         1 IXL      -0.097500
      6 C13         93.2400   -15.0990     5.7780 ca         1 IXL      -0.109000
      7 C15         94.9300   -13.8430     7.0330 ca         1 IXL      -0.069300
      8 C20         91.9200    -6.6330    15.4700 cc         1 IXL      -0.257600
      9 C21         91.1090    -6.0950    16.4890 cc         1 IXL       0.261900
     10 C24         92.7110    -5.7550    14.5450 c          1 IXL       0.668700
     11 C28         93.8800    -3.8530    14.9480 cy         1 IXL       0.100000
     12 C1          93.8720    -9.8640    12.9040 c6         1 IXL       0.115700
     13 C2          95.1400    -9.2320    12.2730 c6         1 IXL      -0.106400
     14 C3          95.9230   -10.2660    11.4230 c6         1 IXL       0.077600
     15 N6          95.0060   -11.0320    10.5570 na         1 IXL      -0.168500
     16 N9          93.1170   -11.8990     9.8110 nd         1 IXL      -0.673000
     17 C11         92.5750   -13.7110     7.6510 ca         1 IXL      -0.082000
     18 C12         92.2410   -14.5900     6.6100 ca         1 IXL      -0.120000
     19 C14         94.5720   -14.7260     5.9910 ca         1 IXL      -0.118000
     20 C16         96.4120   -13.5100     7.1610 c3         1 IXL      -0.046800
     21 O18         92.0940   -10.3480    15.0690 o          1 IXL      -0.615100
     22 C19         91.7740    -8.0220    15.5780 cd         1 IXL      -0.147600
     23 N22         90.4760    -6.9780    17.2190 nd         1 IXL      -0.516800
     24 N23         90.8810    -8.1750    16.6620 na         1 IXL       0.177800
     25 N25         92.4770    -4.3870    14.9030 nj         1 IXL      -0.404800
     26 O26         93.4080    -6.2450    13.6650 o          1 IXL      -0.647100
     27 C27         90.3660    -9.4340    17.2280 c3         1 IXL       0.070900
     28 C29         93.3590    -2.7230    14.0050 cy         1 IXL      -0.117400
     29 C30         92.2700    -3.7490    13.5590 cy         1 IXL       0.100000
     30 N31         93.2110    -8.8950    13.7820 ns         1 IXL      -0.495900
     31 H1          92.0990   -10.9350    12.2100 hc         1 IXL       0.078700
     32 H2          92.4260    -9.4540    11.3190 hc         1 IXL       0.078700
     33 H3          96.3770   -11.9410     9.1830 h4         1 IXL       0.157000
     34 H4          92.9850   -15.7810     4.9690 ha         1 IXL       0.109000
     35 H5          90.9520    -5.0530    16.7340 h4         1 IXL       0.043100
     36 H7          94.6790    -4.4630    14.5100 h1         1 IXL       0.060700
     37 H8          94.1750   -10.7360    13.5050 h1         1 IXL       0.077700
     38 H9          94.8540    -8.3780    11.6430 hc         1 IXL       0.067200
     39 H10         95.7970    -8.8340    13.0580 hc         1 IXL       0.067200
     40 H11         96.6780    -9.7570    10.8070 h1         1 IXL       0.057700
     41 H12         96.4440   -10.9710    12.0860 h1         1 IXL       0.057700
     42 H13         91.7640   -13.3410     8.2730 ha         1 IXL       0.132000
     43 H14         91.2030   -14.8750     6.4500 ha         1 IXL       0.111000
     44 H15         95.3370   -15.1330     5.3320 ha         1 IXL       0.105000
     45 H16         96.8090   -13.8360     8.1300 hc         1 IXL       0.038700
     46 H17         97.0130   -14.0150     6.3950 hc         1 IXL       0.038700
     47 H18         96.5910   -12.4360     7.0370 hc         1 IXL       0.038700
     48 H19         89.6900    -9.2220    18.0650 h1         1 IXL       0.070367
     49 H20         89.8170    -9.9850    16.4560 h1         1 IXL       0.070367
     50 H21         91.2020   -10.0430    17.5900 h1         1 IXL       0.070367
     51 H22         92.9630    -1.8460    14.5290 hc         1 IXL       0.065200
     52 H23         94.0530    -2.3900    13.2260 hc         1 IXL       0.065200
     53 H24         92.5420    -4.3240    12.6650 h1         1 IXL       0.060700
     54 H25         91.2720    -3.3140    13.4370 h1         1 IXL       0.060700
     55 H26         93.3880    -7.9100    13.6210 hn         1 IXL       0.372500
     56 C17         92.3560    -9.1830    14.8080 c          1 IXL       0.626700
     57 H6          94.1760    -3.5020    15.9430 h1         1 IXL       0.060700
@<TRIPOS>BOND
     1     1     2 1   
     2     1    12 1   
     3     1    31 1   
     4     1    32 1   
     5     2    15 1   
     6     2    16 2   
     7     3     4 2   
     8     3    15 1   
     9     3    33 1   
    10     4     5 1   
    11     4    16 1   
    12     5     7 ar  
    13     5    17 ar  
    14     6    18 ar  
    15     6    19 ar  
    16     6    34 1   
    17     7    19 ar  
    18     7    20 1   
    19     8     9 1   
    20     8    10 1   
    21     8    22 2   
    22     9    23 2   
    23     9    35 1   
    24    10    25 1   
    25    10    26 2   
    26    11    25 1   
    27    11    28 1   
    28    11    36 1   
    29    11    57 1   
    30    12    13 1   
    31    12    30 1   
    32    12    37 1   
    33    13    14 1   
    34    13    38 1   
    35    13    39 1   
    36    14    15 1   
    37    14    40 1   
    38    14    41 1   
    39    17    18 ar  
    40    17    42 1   
    41    18    43 1   
    42    19    44 1   
    43    20    45 1   
    44    20    46 1   
    45    20    47 1   
    46    21    56 2   
    47    22    24 1   
    48    22    56 1   
    49    23    24 1   
    50    24    27 1   
    51    25    29 1   
    52    27    48 1   
    53    27    49 1   
    54    27    50 1   
    55    28    29 1   
    56    28    51 1   
    57    28    52 1   
    58    29    53 1   
    59    29    54 1   
    60    30    55 1   
    61    30    56 1   
@<TRIPOS>SUBSTRUCTURE
     1 IXL         1 TEMP              0 ****  ****    0 ROOT
