@<TRIPOS>MOLECULE
IXL
   57    61     1     0     0
SMALL
abcg2


@<TRIPOS>ATOM
      1 C4          93.2250    -9.9870    11.6840 c6         1 IXL      -0.124700
      2 C5          93.8500   -10.9570    10.7420 cc         1 IXL       0.414800
      3 C7          95.3960   -12.2570     9.8960 cc         1 IXL      -0.212000
      4 C8          94.2730   -12.2810     9.1050 cd         1 IXL       0.299500
      5 C10         93.9740   -13.0520     7.8940 ca         1 IXL      -0.097500
      6 C13         93.2140   -14.5100     5.6200 ca         1 IXL      -0.109000
      7 C15         94.9570   -13.5610     7.0270 ca         1 IXL      -0.069300
      8 C20         92.2780    -6.6150    15.4570 cc         1 IXL      -0.257600
      9 C21         91.5900    -6.0680    16.5510 cc         1 IXL       0.261900
     10 C24         93.1770    -5.8910    14.5380 c          1 IXL       0.668700
     11 C28         93.5220    -3.7320    13.3270 cy         1 IXL       0.100000
     12 C1          93.8940   -10.0800    13.0580 c6         1 IXL       0.115700
     13 C2          95.4050    -9.9750    12.8840 c6         1 IXL      -0.106400
     14 C3          95.9420   -11.1530    12.0890 c6         1 IXL       0.077600
     15 N6          95.1100   -11.4100    10.9270 na         1 IXL      -0.168500
     16 N9          93.3200   -11.4600     9.6580 nd         1 IXL      -0.673000
     17 C11         92.6260   -13.2830     7.5910 ca         1 IXL      -0.082000
     18 C12         92.2440   -14.0040     6.4740 ca         1 IXL      -0.120000
     19 C14         94.5510   -14.2800     5.9030 ca         1 IXL      -0.118000
     20 C16         96.4270   -13.3570     7.2510 c3         1 IXL      -0.046800
     21 O18         91.5130   -10.0870    14.5350 o          1 IXL      -0.615100
     22 C19         91.9450    -7.9700    15.4880 cd         1 IXL      -0.147600
     23 N22         90.9120    -6.9900    17.1970 nd         1 IXL      -0.516800
     24 N23         91.1200    -8.1250    16.5450 na         1 IXL       0.177800
     25 N25         92.8900    -4.6120    14.3020 nj         1 IXL      -0.404800
     26 O26         94.1670    -6.4180    14.0200 o          1 IXL      -0.647100
     27 C27         90.4710    -9.3230    17.0470 c3         1 IXL       0.070900
     28 C29         92.2830    -2.8180    13.4070 cy         1 IXL      -0.117400
     29 C30         91.7020    -3.7750    14.4670 cy         1 IXL       0.100000
     30 N31         93.4360    -9.0470    13.9580 ns         1 IXL      -0.495900
     31 H1          92.1550   -10.1850    11.7510 hc         1 IXL       0.078700
     32 H2          93.3410    -8.9670    11.3050 hc         1 IXL       0.078700
     33 H3          96.3390   -12.7740     9.8500 h4         1 IXL       0.157000
     34 H4          92.9340   -15.0740     4.7400 ha         1 IXL       0.109000
     35 H5          91.5950    -5.0520    16.9120 h4         1 IXL       0.043100
     36 H7          93.6980    -4.2080    12.3610 h1         1 IXL       0.060700
     37 H8          93.6550   -11.0510    13.5030 h1         1 IXL       0.077700
     38 H9          95.6520    -9.0350    12.3810 hc         1 IXL       0.067200
     39 H10         95.9030    -9.9660    13.8540 hc         1 IXL       0.067200
     40 H11         96.9620   -10.9600    11.7590 h1         1 IXL       0.057700
     41 H12         95.9590   -12.0510    12.7110 h1         1 IXL       0.057700
     42 H13         91.8680   -12.8900     8.2560 ha         1 IXL       0.132000
     43 H14         91.1930   -14.1690     6.2730 ha         1 IXL       0.111000
     44 H15         95.3090   -14.6640     5.2310 ha         1 IXL       0.105000
     45 H16         96.8070   -13.9870     8.0580 hc         1 IXL       0.038700
     46 H17         96.9920   -13.6110     6.3560 hc         1 IXL       0.038700
     47 H18         96.6600   -12.3240     7.5140 hc         1 IXL       0.038700
     48 H19         90.0830    -9.0790    18.0300 h1         1 IXL       0.070367
     49 H20         89.6520    -9.6250    16.4000 h1         1 IXL       0.070367
     50 H21         91.1790   -10.1410    17.1350 h1         1 IXL       0.070367
     51 H22         92.4770    -1.8090    13.7610 hc         1 IXL       0.065200
     52 H23         91.7060    -2.7710    12.4870 hc         1 IXL       0.065200
     53 H24         90.7700    -4.2750    14.2030 h1         1 IXL       0.060700
     54 H25         91.6060    -3.3390    15.4610 h1         1 IXL       0.060700
     55 H26         93.9510    -8.1630    14.0010 hn         1 IXL       0.372500
     56 C17         92.2730    -9.1300    14.6080 c          1 IXL       0.626700
     57 H6          94.4550    -3.2910    13.6790 h1         1 IXL       0.060700
@<TRIPOS>BOND
     1     1     2 1   
     2     1    12 1   
     3     1    31 1   
     4     1    32 1   
     5     2    15 1   
     6     2    16 2   
     7     3     4 2   
     8     3    15 1   
     9     3    33 1   
    10     4     5 1   
    11     4    16 1   
    12     5     7 ar  
    13     5    17 ar  
    14     6    18 ar  
    15     6    19 ar  
    16     6    34 1   
    17     7    19 ar  
    18     7    20 1   
    19     8     9 1   
    20     8    10 1   
    21     8    22 2   
    22     9    23 2   
    23     9    35 1   
    24    10    25 1   
    25    10    26 2   
    26    11    25 1   
    27    11    28 1   
    28    11    36 1   
    29    11    57 1   
    30    12    13 1   
    31    12    30 1   
    32    12    37 1   
    33    13    14 1   
    34    13    38 1   
    35    13    39 1   
    36    14    15 1   
    37    14    40 1   
    38    14    41 1   
    39    17    18 ar  
    40    17    42 1   
    41    18    43 1   
    42    19    44 1   
    43    20    45 1   
    44    20    46 1   
    45    20    47 1   
    46    21    56 2   
    47    22    24 1   
    48    22    56 1   
    49    23    24 1   
    50    24    27 1   
    51    25    29 1   
    52    27    48 1   
    53    27    49 1   
    54    27    50 1   
    55    28    29 1   
    56    28    51 1   
    57    28    52 1   
    58    29    53 1   
    59    29    54 1   
    60    30    55 1   
    61    30    56 1   
@<TRIPOS>SUBSTRUCTURE
     1 IXL         1 TEMP              0 ****  ****    0 ROOT
