@<TRIPOS>MOLECULE
IXM
   32    35     1     0     0
SMALL
bcc


@<TRIPOS>ATOM
      1 C1          -2.5870     0.5290    -0.0020 ca         1 IXM      -0.226900
      2 C2          -1.1830     0.9350    -0.0100 cc         1 IXM       0.451200
      3 C3          -2.5800    -0.8700    -0.0350 ca         1 IXM       0.037800
      4 N4          -1.2780    -1.3210    -0.0620 na         1 IXM      -0.232400
      5 C5          -3.7450    -1.6140    -0.0400 ca         1 IXM      -0.167000
      6 C7          -4.9470    -0.9150    -0.0090 ca         1 IXM      -0.076000
      7 C9          -4.9760     0.4760     0.0250 ca         1 IXM      -0.174000
      8 C11         -3.7960     1.2120     0.0280 ca         1 IXM      -0.033000
      9 C13         -0.3740    -0.3080    -0.0500 cc         1 IXM       0.071300
     10 C14          0.9810    -0.5290    -0.0750 cd         1 IXM      -0.222400
     11 C15          1.4820    -1.9170    -0.1170 c          1 IXM       0.713700
     12 N16          2.8410    -1.8390    -0.1330 ns         1 IXM      -0.455100
     13 C17          3.2750    -0.5290    -0.1080 ca         1 IXM       0.045600
     14 C18          2.1570     0.3300    -0.0710 ca         1 IXM      -0.058800
     15 C19          4.5770    -0.0730    -0.1160 ca         1 IXM      -0.164000
     16 C20          4.7850     1.3030    -0.0860 ca         1 IXM      -0.100000
     17 C21          3.7040     2.1750    -0.0510 ca         1 IXM      -0.161000
     18 C22          2.3950     1.7010    -0.0430 ca         1 IXM      -0.077000
     19 O23          0.8420    -2.9660    -0.1350 o          1 IXM      -0.665500
     20 N24         -0.6370     2.0880     0.0090 n2         1 IXM      -0.389200
     21 O39         -1.5210     3.0940     0.0430 oh         1 IXM      -0.353500
     22 HN4         -0.9830    -2.2890    -0.0910 hn         1 IXM       0.347700
     23 HC5         -3.7240    -2.6960    -0.0650 ha         1 IXM       0.146000
     24 HC7         -5.8760    -1.4690    -0.0110 ha         1 IXM       0.134000
     25 HC9         -5.9260     0.9920     0.0490 ha         1 IXM       0.137000
     26 H11         -3.8380     2.2900     0.0530 ha         1 IXM       0.150000
     27 H16          3.4450    -2.6450    -0.1690 hn         1 IXM       0.339500
     28 H19          5.4080    -0.7660    -0.1440 ha         1 IXM       0.135000
     29 H20          5.7950     1.6900    -0.0910 ha         1 IXM       0.131000
     30 H21          3.8760     3.2430    -0.0300 ha         1 IXM       0.130000
     31 H22          1.5750     2.3990    -0.0150 ha         1 IXM       0.149000
     32 H39         -0.9860     3.8970     0.0540 ho         1 IXM       0.437000
@<TRIPOS>BOND
     1     1     2 1   
     2     1     3 ar  
     3     1     8 ar  
     4     2     9 1   
     5     2    20 2   
     6     3     4 1   
     7     3     5 ar  
     8     4     9 1   
     9     4    22 1   
    10     5     6 ar  
    11     5    23 1   
    12     6     7 ar  
    13     6    24 1   
    14     7     8 ar  
    15     7    25 1   
    16     8    26 1   
    17     9    10 2   
    18    10    11 1   
    19    10    14 1   
    20    11    12 1   
    21    11    19 2   
    22    12    13 1   
    23    12    27 1   
    24    13    14 ar  
    25    13    15 ar  
    26    14    18 ar  
    27    15    16 ar  
    28    15    28 1   
    29    16    17 ar  
    30    16    29 1   
    31    17    18 ar  
    32    17    30 1   
    33    18    31 1   
    34    20    21 1   
    35    21    32 1   
@<TRIPOS>SUBSTRUCTURE
     1 IXM         1 TEMP              0 ****  ****    0 ROOT
