@<TRIPOS>MOLECULE
IXM
   32    35     1     0     0
SMALL
No Charge or Current Charge


@<TRIPOS>ATOM
      1 C1          -2.5860     0.5220    -0.0040 ca         1 IXM      -0.226900
      2 C2          -1.1950     0.9880    -0.0120 cc         1 IXM       0.451200
      3 C3          -2.5580    -0.8660    -0.0380 ca         1 IXM       0.037800
      4 N4          -1.2590    -1.3350    -0.0670 na         1 IXM      -0.282700
      5 C5          -3.7290    -1.6330    -0.0400 ca         1 IXM      -0.149000
      6 C7          -4.9670    -0.9630    -0.0080 ca         1 IXM      -0.058000
      7 C9          -5.0080     0.4490     0.0270 ca         1 IXM      -0.156000
      8 C11         -3.8190     1.2070     0.0290 ca         1 IXM      -0.015000
      9 C13         -0.4090    -0.2330    -0.0520 cc         1 IXM       0.071300
     10 C14          0.9630    -0.5540    -0.0780 cd         1 IXM      -0.222400
     11 C15          1.4690    -1.9770    -0.1190 c          1 IXM       0.571200
     12 N16          2.8230    -1.8520    -0.1340 ns         1 IXM      -0.388100
     13 C17          3.2950    -0.5530    -0.1100 ca         1 IXM       0.045600
     14 C18          2.1950     0.2980    -0.0740 ca         1 IXM      -0.058800
     15 C19          4.6210    -0.1120    -0.1170 ca         1 IXM      -0.146000
     16 C20          4.8480     1.2750    -0.0870 ca         1 IXM      -0.082000
     17 C21          3.7550     2.1670    -0.0510 ca         1 IXM      -0.143000
     18 C22          2.4250     1.6900    -0.0440 ca         1 IXM      -0.059000
     19 O23          0.8600    -3.0370    -0.1360 o          1 IXM      -0.590000
     20 N24         -0.7340     2.2130     0.0110 n2         1 IXM      -0.290700
     21 O39         -1.6480     3.2840     0.0490 oh         1 IXM      -0.491000
     22 HN4         -0.9620    -2.3090    -0.0940 hn         1 IXM       0.398000
     23 HC5         -3.6860    -2.7190    -0.0670 ha         1 IXM       0.128000
     24 HC7         -5.8930    -1.5340    -0.0090 ha         1 IXM       0.116000
     25 HC9         -5.9690     0.9580     0.0520 ha         1 IXM       0.119000
     26 H11         -3.8810     2.2910     0.0560 ha         1 IXM       0.132000
     27 H16          3.4330    -2.6590    -0.1620 hn         1 IXM       0.339500
     28 H19          5.4490    -0.8160    -0.1450 ha         1 IXM       0.117000
     29 H20          5.8660     1.6610    -0.0920 ha         1 IXM       0.113000
     30 H21          3.9390     3.2390    -0.0280 ha         1 IXM       0.112000
     31 H22          1.6310     2.4180    -0.0160 ha         1 IXM       0.131000
     32 H39         -1.0890     4.0980     0.0610 ho         1 IXM       0.476000
@<TRIPOS>BOND
     1     1     2 1   
     2     1     3 ar  
     3     1     8 ar  
     4     2     9 1   
     5     2    20 2   
     6     3     4 1   
     7     3     5 ar  
     8     4     9 1   
     9     4    22 1   
    10     5     6 ar  
    11     5    23 1   
    12     6     7 ar  
    13     6    24 1   
    14     7     8 ar  
    15     7    25 1   
    16     8    26 1   
    17     9    10 2   
    18    10    11 1   
    19    10    14 1   
    20    11    12 1   
    21    11    19 2   
    22    12    13 1   
    23    12    27 1   
    24    13    14 ar  
    25    13    15 ar  
    26    14    18 ar  
    27    15    16 ar  
    28    15    28 1   
    29    16    17 ar  
    30    16    29 1   
    31    17    18 ar  
    32    17    30 1   
    33    18    31 1   
    34    20    21 1   
    35    21    32 1   
@<TRIPOS>SUBSTRUCTURE
     1 IXM         1 TEMP              0 ****  ****    0 ROOT
