@<TRIPOS>MOLECULE
IXN
   92    96     1     0     0
SMALL
bcc


@<TRIPOS>ATOM
      1 S            7.8890     1.4370    -1.3300 s6         1 IXN       1.583100
      2 N1          -0.6640    -2.3330    -0.8050 nb         1 IXN      -0.856000
      3 C2          -0.8030    -1.0370    -1.0210 ca         1 IXN       0.823500
      4 N3           0.0570    -0.0620    -0.8520 nb         1 IXN      -0.708000
      5 C4           1.2180    -0.5250    -0.3960 ca         1 IXN       0.484800
      6 C5           1.5290    -1.8450    -0.1170 ca         1 IXN      -0.238200
      7 C6           0.5070    -2.7870    -0.3440 ca         1 IXN       0.808200
      8 N6           0.6570    -4.0870    -0.1180 nv         1 IXN      -0.945500
      9 N7           2.8170    -1.9580     0.3350 nc         1 IXN      -0.540100
     10 C8           3.2670    -0.7410     0.3320 cd         1 IXN       0.417700
     11 N9           2.3460     0.1800    -0.0980 na         1 IXN      -0.250000
     12 O9           6.6000    -1.1050    -0.6900 o          1 IXN      -0.586100
     13 C1           2.5360     1.5960    -0.2620 c5         1 IXN       0.258800
     14 O1P          8.1070     0.6880    -2.5330 o          1 IXN      -0.599300
     15 C1S          7.7450    -1.5650     1.3270 ca         1 IXN      -0.294600
     16 C7           2.8700     2.3400     1.0290 c5         1 IXN       0.058100
     17 O2           1.6990     2.6250     1.7280 oh         1 IXN      -0.563800
     18 C21          7.4200    -0.7540     0.1480 c          1 IXN       0.724700
     19 O2P          8.6770     2.6010    -1.0160 o          1 IXN      -0.599300
     20 C2S          7.0060    -2.7490     1.5480 ca         1 IXN       0.229100
     21 O2S          6.0410    -3.1730     0.7380 oh         1 IXN      -0.487100
     22 C3           3.6090     3.5640     0.4770 c5         1 IXN       0.086100
     23 O3           2.7090     4.5000    -0.0490 oh         1 IXN      -0.573800
     24 N33         -2.0820    -0.6700    -1.4950 na         1 IXN       0.049600
     25 N34         -2.3610     0.5800    -1.8490 nc         1 IXN      -0.146800
     26 N35         -3.5870     0.6140    -2.2180 nd         1 IXN      -0.360000
     27 C36         -4.1370    -0.6260    -2.1120 cd         1 IXN       0.262600
     28 C37         -3.1670    -1.4660    -1.6460 cc         1 IXN      -0.198600
     29 C38         -5.5660    -0.9040    -2.4170 c3         1 IXN      -0.088700
     30 C39         -6.5110    -0.3320    -1.3590 c3         1 IXN      -0.074400
     31 C3S          7.2850    -3.5290     2.6740 ca         1 IXN      -0.191000
     32 C9           4.3860     2.9410    -0.6800 c5         1 IXN       0.147100
     33 O4           3.6250     1.8170    -1.1170 os         1 IXN      -0.372600
     34 C40         -7.9720    -0.6640    -1.6320 c3         1 IXN      -0.074400
     35 C41         -8.9150    -0.0740    -0.5910 c3         1 IXN      -0.074400
     36 C42        -10.3760    -0.4400    -0.8210 c3         1 IXN      -0.074400
     37 C43        -11.3160     0.1770     0.2070 c3         1 IXN      -0.074400
     38 C44        -12.7760    -0.2070     0.0030 c3         1 IXN      -0.074400
     39 C45        -13.7130     0.4410     1.0140 c3         1 IXN      -0.074400
     40 C46        -15.1740     0.0500     0.8250 c3         1 IXN      -0.074400
     41 C4S          8.2780    -3.1560     3.5530 ca         1 IXN      -0.048000
     42 C10          5.7700     2.5080    -0.2430 c3         1 IXN       0.159400
     43 O5           6.3500     1.7940    -1.3500 os         1 IXN      -0.517500
     44 C5S          9.0250    -1.9980     3.3390 ca         1 IXN      -0.188000
     45 C6S          8.7550    -1.2190     2.2370 ca         1 IXN      -0.046000
     46 NHS          8.0530     0.4570     0.0110 ns         1 IXN      -0.677300
     47 C29        -16.1090     0.7210     1.8220 c3         1 IXN      -0.075400
     48 C30        -17.5720     0.3350     1.6370 c3         1 IXN      -0.074400
     49 C31        -18.4960     1.0270     2.6280 c3         1 IXN      -0.088100
     50 HN6         -0.0850    -4.7320    -0.3310 hn         1 IXN       0.457300
     51 HN6A         1.5360    -4.4600     0.1970 hn         1 IXN       0.457300
     52 H1           1.6030     1.9800    -0.6880 h2         1 IXN       0.133700
     53 H2           3.5670     1.7430     1.6320 h1         1 IXN       0.046700
     54 HO2          1.9190     2.8120     2.6460 ho         1 IXN       0.417000
     55 HO2S         5.9800    -2.5640    -0.0270 ho         1 IXN       0.480000
     56 H3           4.2760     4.0130     1.2250 h1         1 IXN       0.052700
     57 HO3          2.0090     4.6370     0.6010 ho         1 IXN       0.430000
     58 H37         -3.1620    -2.5160    -1.4180 h4         1 IXN       0.199000
     59 H38         -5.8210    -0.4850    -3.3950 hc         1 IXN       0.050200
     60 H38A        -5.7100    -1.9840    -2.4950 hc         1 IXN       0.050200
     61 H39         -6.2250    -0.7220    -0.3770 hc         1 IXN       0.046700
     62 H39A        -6.3820     0.7530    -1.3080 hc         1 IXN       0.046700
     63 H3S          6.7120    -4.4330     2.8380 ha         1 IXN       0.156000
     64 H4           4.4810     3.6490    -1.5080 h1         1 IXN       0.114700
     65 H40         -8.2520    -0.2960    -2.6250 hc         1 IXN       0.036700
     66 H40A        -8.0950    -1.7520    -1.6630 hc         1 IXN       0.036700
     67 H41         -8.6110    -0.4130     0.4060 hc         1 IXN       0.038700
     68 H41A        -8.8100     1.0170    -0.5850 hc         1 IXN       0.038700
     69 H42        -10.6780    -0.1200    -1.8250 hc         1 IXN       0.036700
     70 H42A       -10.4830    -1.5300    -0.8050 hc         1 IXN       0.036700
     71 H43        -11.0000    -0.1230     1.2120 hc         1 IXN       0.037200
     72 H43A       -11.2200     1.2690     0.1740 hc         1 IXN       0.037200
     73 H44        -13.0880     0.0730    -1.0100 hc         1 IXN       0.037200
     74 H44A       -12.8760    -1.2970     0.0600 hc         1 IXN       0.037200
     75 H45        -13.3950     0.1710     2.0280 hc         1 IXN       0.037200
     76 H45A       -13.6180     1.5300     0.9480 hc         1 IXN       0.037200
     77 H46        -15.4880     0.3040    -0.1940 hc         1 IXN       0.036700
     78 H46A       -15.2720    -1.0380     0.9090 hc         1 IXN       0.036700
     79 H4S          8.4810    -3.7770     4.4170 ha         1 IXN       0.139000
     80 H5           6.3620     3.3920     0.0020 h1         1 IXN       0.051700
     81 H5'A         5.7390     1.8550     0.6330 h1         1 IXN       0.051700
     82 H5S          9.8090    -1.7120     4.0270 ha         1 IXN       0.142000
     83 H6S          9.3600    -0.3340     2.0910 ha         1 IXN       0.123000
     84 HNHS         8.6640     0.8250     0.7290 hn         1 IXN       0.348500
     85 H371       -15.7950     0.4690     2.8410 hc         1 IXN       0.036700
     86 H381       -16.0090     1.8090     1.7360 hc         1 IXN       0.036700
     87 H391       -17.8830     0.5770     0.6160 hc         1 IXN       0.036700
     88 H401       -17.6750    -0.7510     1.7350 hc         1 IXN       0.036700
     89 H411       -19.5390     0.7510     2.4670 hc         1 IXN       0.031367
     90 H421       -18.2400     0.7650     3.6560 hc         1 IXN       0.031367
     91 H431       -18.4250     2.1130     2.5390 hc         1 IXN       0.031367
     92 H8           4.2610    -0.4500     0.6300 h5         1 IXN       0.063800
@<TRIPOS>BOND
     1     1    14 2   
     2     1    19 2   
     3     1    43 1   
     4     1    46 1   
     5     2     3 ar  
     6     2     7 ar  
     7     3     4 ar  
     8     3    24 1   
     9     4     5 ar  
    10     5     6 ar  
    11     5    11 1   
    12     6     7 ar  
    13     6     9 1   
    14     7     8 1   
    15     8    50 1   
    16     8    51 1   
    17     9    10 2   
    18    10    11 1   
    19    10    92 1   
    20    11    13 1   
    21    12    18 2   
    22    13    16 1   
    23    13    33 1   
    24    13    52 1   
    25    15    18 1   
    26    15    20 ar  
    27    15    45 ar  
    28    16    17 1   
    29    16    22 1   
    30    16    53 1   
    31    17    54 1   
    32    18    46 1   
    33    20    21 1   
    34    20    31 ar  
    35    21    55 1   
    36    22    23 1   
    37    22    32 1   
    38    22    56 1   
    39    23    57 1   
    40    24    25 1   
    41    24    28 1   
    42    25    26 2   
    43    26    27 1   
    44    27    28 2   
    45    27    29 1   
    46    28    58 1   
    47    29    30 1   
    48    29    59 1   
    49    29    60 1   
    50    30    34 1   
    51    30    61 1   
    52    30    62 1   
    53    31    41 ar  
    54    31    63 1   
    55    32    33 1   
    56    32    42 1   
    57    32    64 1   
    58    34    35 1   
    59    34    65 1   
    60    34    66 1   
    61    35    36 1   
    62    35    67 1   
    63    35    68 1   
    64    36    37 1   
    65    36    69 1   
    66    36    70 1   
    67    37    38 1   
    68    37    71 1   
    69    37    72 1   
    70    38    39 1   
    71    38    73 1   
    72    38    74 1   
    73    39    40 1   
    74    39    75 1   
    75    39    76 1   
    76    40    47 1   
    77    40    77 1   
    78    40    78 1   
    79    41    44 ar  
    80    41    79 1   
    81    42    43 1   
    82    42    80 1   
    83    42    81 1   
    84    44    45 ar  
    85    44    82 1   
    86    45    83 1   
    87    46    84 1   
    88    47    48 1   
    89    47    85 1   
    90    47    86 1   
    91    48    49 1   
    92    48    87 1   
    93    48    88 1   
    94    49    89 1   
    95    49    90 1   
    96    49    91 1   
@<TRIPOS>SUBSTRUCTURE
     1 IXN         1 TEMP              0 ****  ****    0 ROOT
