@<TRIPOS>MOLECULE
IXN
   92    96     1     0     0
SMALL
No Charge or Current Charge


@<TRIPOS>ATOM
      1 S            7.8410     2.6960     0.7110 s6         1 IXN       1.441500
      2 N1          -0.0590    -3.0160    -0.5800 nb         1 IXN      -0.330000
      3 C2          -0.4800    -1.7980    -1.0260 ca         1 IXN       0.297500
      4 N3           0.3210    -0.6940    -0.9870 nb         1 IXN      -0.182000
      5 C4           1.5670    -0.8230    -0.4960 ca         1 IXN       0.156500
      6 C5           2.0440    -2.0160    -0.0370 ca         1 IXN      -0.107600
      7 C6           1.1810    -3.1210    -0.0910 ca         1 IXN       0.479900
      8 N6           1.5480    -4.3560     0.3350 nv         1 IXN      -1.055900
      9 N7           3.3530    -1.9310     0.4200 nc         1 IXN      -0.540100
     10 C8           3.6350    -0.6320     0.2110 cd         1 IXN       0.417700
     11 N9           2.5700     0.0990    -0.3460 na         1 IXN      -0.279300
     12 O9           7.8430     0.1760    -0.9700 o          1 IXN      -0.586100
     13 C1           2.5510     1.5190    -0.6770 c5         1 IXN       0.311300
     14 O1P          9.0430     2.8050    -0.1210 o          1 IXN      -0.528500
     15 C1S          7.2050    -1.2940     0.7960 ca         1 IXN      -0.294600
     16 C7           2.1820     2.4870     0.4940 c5         1 IXN       0.081300
     17 O2           0.7680     2.6210     0.7350 oh         1 IXN      -0.686000
     18 C21          7.5710     0.0520     0.2140 c          1 IXN       0.657700
     19 O2P          7.7100     3.4510     1.9600 o          1 IXN      -0.528500
     20 C2S          7.1590    -2.4450    -0.0280 ca         1 IXN       0.229100
     21 O2S          7.4500    -2.3690    -1.3550 oh         1 IXN      -0.526100
     22 C3           2.7850     3.8050    -0.0610 c5         1 IXN       0.109300
     23 O3           1.9310     4.3520    -1.0750 oh         1 IXN      -0.696000
     24 N33         -1.7810    -1.6780    -1.5340 na         1 IXN       0.100300
     25 N34         -2.0540    -0.8860    -2.6050 nc         1 IXN      -0.146800
     26 N35         -3.3390    -1.0220    -2.8110 nd         1 IXN      -0.360000
     27 C36         -3.8660    -1.8980    -1.8740 cd         1 IXN       0.197300
     28 C37         -2.8750    -2.3380    -1.0410 cc         1 IXN      -0.166000
     29 C38         -5.3260    -2.2670    -1.8480 c3         1 IXN      -0.088700
     30 C39         -6.1980    -1.1950    -1.1580 c3         1 IXN      -0.074400
     31 C3S          6.8120    -3.6960     0.5020 ca         1 IXN      -0.173000
     32 C9           4.1490     3.2740    -0.6190 c5         1 IXN       0.170300
     33 O4           3.8650     1.9340    -1.1180 os         1 IXN      -0.419000
     34 C40         -7.6960    -1.5680    -1.1140 c3         1 IXN      -0.074400
     35 C41         -8.5650    -0.4950    -0.4240 c3         1 IXN      -0.074400
     36 C42        -10.0640    -0.8680    -0.3800 c3         1 IXN      -0.074400
     37 C43        -10.9340     0.2060     0.3090 c3         1 IXN      -0.074400
     38 C44        -12.4320    -0.1670     0.3530 c3         1 IXN      -0.074400
     39 C45        -13.3020     0.9070     1.0420 c3         1 IXN      -0.074400
     40 C46        -14.8000     0.5340     1.0850 c3         1 IXN      -0.074400
     41 C4S          6.5010    -3.8300     1.8620 ca         1 IXN      -0.030000
     42 C10          5.2710     3.1940     0.4510 c3         1 IXN       0.182600
     43 O5           6.5190     2.9640    -0.2270 os         1 IXN      -0.540700
     44 C5S          6.5410    -2.7020     2.6930 ca         1 IXN      -0.170000
     45 C6S          6.8880    -1.4450     2.1710 ca         1 IXN      -0.028000
     46 NHS          7.5670     1.1000     1.0670 ns         1 IXN      -0.610300
     47 C29        -15.6710     1.6080     1.7740 c3         1 IXN      -0.075400
     48 C30        -17.1690     1.2360     1.8170 c3         1 IXN      -0.074400
     49 C31        -18.0380     2.3070     2.5040 c3         1 IXN      -0.088100
     50 HN6          1.0160    -5.1510    -0.0040 hn         1 IXN       0.512500
     51 HN6A         2.5400    -4.5070     0.4990 hn         1 IXN       0.512500
     52 H1           1.8380     1.6440    -1.5030 h2         1 IXN       0.133700
     53 H2           2.6980     2.1870     1.4170 h1         1 IXN       0.046700
     54 HO2          0.4770     1.8370     1.2610 ho         1 IXN       0.516000
     55 HO2S         7.6660    -1.4170    -1.5290 ho         1 IXN       0.519000
     56 H3           2.9370     4.5410     0.7400 h1         1 IXN       0.052700
     57 HO3          1.0170     4.1490    -0.7530 ho         1 IXN       0.529000
     58 H37         -2.8650    -3.0170    -0.1990 h4         1 IXN       0.181000
     59 H38         -5.6860    -2.4210    -2.8730 hc         1 IXN       0.050200
     60 H38A        -5.4530    -3.2240    -1.3270 hc         1 IXN       0.050200
     61 H39         -5.8330    -1.0400    -0.1350 hc         1 IXN       0.046700
     62 H39A        -6.0790    -0.2400    -1.6870 hc         1 IXN       0.046700
     63 H3S          6.7820    -4.5670    -0.1470 ha         1 IXN       0.138000
     64 H4           4.5060     3.9050    -1.4440 h1         1 IXN       0.114700
     65 H40         -8.0590    -1.7220    -2.1380 hc         1 IXN       0.036700
     66 H40A        -7.8140    -2.5220    -0.5850 hc         1 IXN       0.036700
     67 H41         -8.2030    -0.3400     0.6000 hc         1 IXN       0.038700
     68 H41A        -8.4470     0.4590    -0.9530 hc         1 IXN       0.038700
     69 H42        -10.4260    -1.0220    -1.4040 hc         1 IXN       0.036700
     70 H42A       -10.1820    -1.8220     0.1490 hc         1 IXN       0.036700
     71 H43        -10.5710     0.3600     1.3330 hc         1 IXN       0.037200
     72 H43A       -10.8150     1.1600    -0.2200 hc         1 IXN       0.037200
     73 H44        -12.7940    -0.3220    -0.6710 hc         1 IXN       0.037200
     74 H44A       -12.5500    -1.1210     0.8820 hc         1 IXN       0.037200
     75 H45        -12.9400     1.0610     2.0660 hc         1 IXN       0.037200
     76 H45A       -13.1830     1.8610     0.5120 hc         1 IXN       0.037200
     77 H46        -15.1630     0.3790     0.0610 hc         1 IXN       0.036700
     78 H46A       -14.9190    -0.4200     1.6150 hc         1 IXN       0.036700
     79 H4S          6.2310    -4.8020     2.2700 ha         1 IXN       0.121000
     80 H5           5.3020     4.1410     1.0050 h1         1 IXN       0.051700
     81 H5'A         5.0410     2.3850     1.1580 h1         1 IXN       0.051700
     82 H5S          6.3010    -2.8010     3.7490 ha         1 IXN       0.124000
     83 H6S          6.9040    -0.6010     2.8560 ha         1 IXN       0.105000
     84 HNHS         7.3430     0.9710     2.0350 hn         1 IXN       0.348500
     85 H371       -15.3090     1.7630     2.7980 hc         1 IXN       0.036700
     86 H381       -15.5520     2.5620     1.2440 hc         1 IXN       0.036700
     87 H391       -17.5350     1.0820     0.7940 hc         1 IXN       0.036700
     88 H401       -17.2920     0.2830     2.3480 hc         1 IXN       0.036700
     89 H411       -19.0900     1.9990     2.5110 hc         1 IXN       0.031367
     90 H421       -17.7180     2.4590     3.5420 hc         1 IXN       0.031367
     91 H431       -17.9640     3.2640     1.9740 hc         1 IXN       0.031367
     92 H8           4.5770    -0.1510     0.4430 h5         1 IXN       0.063800
@<TRIPOS>BOND
     1     1    14 2   
     2     1    19 2   
     3     1    43 1   
     4     1    46 1   
     5     2     3 ar  
     6     2     7 ar  
     7     3     4 ar  
     8     3    24 1   
     9     4     5 ar  
    10     5     6 ar  
    11     5    11 1   
    12     6     7 ar  
    13     6     9 1   
    14     7     8 1   
    15     8    50 1   
    16     8    51 1   
    17     9    10 2   
    18    10    11 1   
    19    10    92 1   
    20    11    13 1   
    21    12    18 2   
    22    13    16 1   
    23    13    33 1   
    24    13    52 1   
    25    15    18 1   
    26    15    20 ar  
    27    15    45 ar  
    28    16    17 1   
    29    16    22 1   
    30    16    53 1   
    31    17    54 1   
    32    18    46 1   
    33    20    21 1   
    34    20    31 ar  
    35    21    55 1   
    36    22    23 1   
    37    22    32 1   
    38    22    56 1   
    39    23    57 1   
    40    24    25 1   
    41    24    28 1   
    42    25    26 2   
    43    26    27 1   
    44    27    28 2   
    45    27    29 1   
    46    28    58 1   
    47    29    30 1   
    48    29    59 1   
    49    29    60 1   
    50    30    34 1   
    51    30    61 1   
    52    30    62 1   
    53    31    41 ar  
    54    31    63 1   
    55    32    33 1   
    56    32    42 1   
    57    32    64 1   
    58    34    35 1   
    59    34    65 1   
    60    34    66 1   
    61    35    36 1   
    62    35    67 1   
    63    35    68 1   
    64    36    37 1   
    65    36    69 1   
    66    36    70 1   
    67    37    38 1   
    68    37    71 1   
    69    37    72 1   
    70    38    39 1   
    71    38    73 1   
    72    38    74 1   
    73    39    40 1   
    74    39    75 1   
    75    39    76 1   
    76    40    47 1   
    77    40    77 1   
    78    40    78 1   
    79    41    44 ar  
    80    41    79 1   
    81    42    43 1   
    82    42    80 1   
    83    42    81 1   
    84    44    45 ar  
    85    44    82 1   
    86    45    83 1   
    87    46    84 1   
    88    47    48 1   
    89    47    85 1   
    90    47    86 1   
    91    48    49 1   
    92    48    87 1   
    93    48    88 1   
    94    49    89 1   
    95    49    90 1   
    96    49    91 1   
@<TRIPOS>SUBSTRUCTURE
     1 IXN         1 TEMP              0 ****  ****    0 ROOT
