@<TRIPOS>MOLECULE
IXO
   31    31     1     0     0
SMALL
No Charge or Current Charge


@<TRIPOS>ATOM
      1 C01         -3.0600     0.6810     1.3500 c3         1 IXO       0.077900
      2 N02         -3.7420    -0.0090     0.1550 n4         1 IXO      -0.500000
      3 C03         -3.3640    -1.5010     0.1410 c3         1 IXO       0.077900
      4 C04         -5.2640     0.1150     0.3160 c3         1 IXO       0.077900
      5 C05         -3.3250     0.6650    -1.1690 c3         1 IXO       0.216700
      6 C06         -1.8730     0.6140    -1.4030 c1         1 IXO      -0.248100
      7 C07         -0.6730     0.5630    -1.5540 c1         1 IXO       0.025900
      8 C08          0.7860     0.4940    -1.6920 c3         1 IXO       0.225700
      9 O09          1.3590     0.2190    -0.3980 os         1 IXO      -0.404600
     10 C10          2.7200     0.1080    -0.2820 c2         1 IXO       0.505600
     11 N11          3.5690     0.2420    -1.2270 n2         1 IXO      -0.365700
     12 O12          4.8610     0.0560    -0.6730 os         1 IXO      -0.255000
     13 C13          4.7490    -0.2500     0.7540 c5         1 IXO       0.109600
     14 C14          3.2320    -0.1730     1.0820 c5         1 IXO      -0.154700
     15 H101        -3.3900     0.2090     2.2780 hx         1 IXO       0.098367
     16 H201        -1.9760     0.5800     1.2550 hx         1 IXO       0.098367
     17 H301        -3.3290     1.7390     1.3590 hx         1 IXO       0.098367
     18 H103        -3.6880    -1.9650     1.0750 hx         1 IXO       0.098367
     19 H203        -3.8550    -1.9900    -0.7030 hx         1 IXO       0.098367
     20 H303        -2.2810    -1.5980     0.0410 hx         1 IXO       0.098367
     21 H104        -5.5420     1.1710     0.3350 hx         1 IXO       0.098367
     22 H204        -5.7590    -0.3800    -0.5230 hx         1 IXO       0.098367
     23 H304        -5.5670    -0.3600     1.2510 hx         1 IXO       0.098367
     24 H105        -3.8610     0.1670    -1.9800 hx         1 IXO       0.108700
     25 H205        -3.6690     1.7020    -1.1360 hx         1 IXO       0.108700
     26 H108         1.0370    -0.2960    -2.4120 h1         1 IXO       0.090700
     27 H208         1.1500     1.4510    -2.0900 h1         1 IXO       0.090700
     28 H113         5.1570    -1.2540     0.9360 h1         1 IXO       0.074700
     29 H213         5.3380     0.4770     1.3290 h1         1 IXO       0.074700
     30 H114         2.9900     0.6380     1.7760 hc         1 IXO       0.088200
     31 H214         2.8350    -1.1130     1.4790 hc         1 IXO       0.088200
@<TRIPOS>BOND
     1     1     2 1   
     2     1    15 1   
     3     1    16 1   
     4     1    17 1   
     5     2     3 1   
     6     2     4 1   
     7     2     5 1   
     8     3    18 1   
     9     3    19 1   
    10     3    20 1   
    11     4    21 1   
    12     4    22 1   
    13     4    23 1   
    14     5     6 1   
    15     5    24 1   
    16     5    25 1   
    17     6     7 3   
    18     7     8 1   
    19     8     9 1   
    20     8    26 1   
    21     8    27 1   
    22     9    10 1   
    23    10    11 2   
    24    10    14 1   
    25    11    12 1   
    26    12    13 1   
    27    13    14 1   
    28    13    28 1   
    29    13    29 1   
    30    14    30 1   
    31    14    31 1   
@<TRIPOS>SUBSTRUCTURE
     1 IXO         1 TEMP              0 ****  ****    0 ROOT
