@<TRIPOS>MOLECULE
IXO
   31    31     1     0     0
SMALL
bcc


@<TRIPOS>ATOM
      1 C01         -3.8350    -0.8010     1.3130 c3         1 IXO       0.106100
      2 N02         -4.0400    -0.0870     0.0210 n4         1 IXO      -0.612800
      3 C03         -3.9960    -1.0620    -1.1050 c3         1 IXO       0.106100
      4 C04         -5.3710     0.5840     0.0340 c3         1 IXO       0.106100
      5 C05         -2.9920     0.9750    -0.1680 c3         1 IXO       0.244900
      6 C06         -1.6500     0.4290    -0.2100 c1         1 IXO      -0.248100
      7 C07         -0.5300     0.0010    -0.2460 c1         1 IXO       0.025900
      8 C08          0.8150    -0.5510    -0.2890 c3         1 IXO       0.202500
      9 O09          1.7180     0.4950     0.0590 os         1 IXO      -0.381400
     10 C10          3.0070     0.1890     0.0190 c2         1 IXO       0.505600
     11 N11          3.4580    -0.9520    -0.3080 n2         1 IXO      -0.464200
     12 O12          4.8390    -0.9240    -0.2160 os         1 IXO      -0.133300
     13 C13          5.2670     0.4450    -0.0990 c5         1 IXO       0.086400
     14 C14          4.0410     1.1920     0.4070 c5         1 IXO      -0.154700
     15 H101        -4.6280    -1.5330     1.4360 hx         1 IXO       0.098367
     16 H201        -2.8740    -1.3080     1.3010 hx         1 IXO       0.098367
     17 H301        -3.8640    -0.0830     2.1280 hx         1 IXO       0.098367
     18 H103        -4.8170    -1.7630    -0.9870 hx         1 IXO       0.098367
     19 H203        -4.0990    -0.5250    -2.0440 hx         1 IXO       0.098367
     20 H303        -3.0510    -1.5970    -1.0880 hx         1 IXO       0.098367
     21 H104        -5.4060     1.3020     0.8500 hx         1 IXO       0.098367
     22 H204        -5.5240     1.0930    -0.9130 hx         1 IXO       0.098367
     23 H304        -6.1420    -0.1690     0.1750 hx         1 IXO       0.098367
     24 H105        -3.2280     1.4990    -1.0940 hx         1 IXO       0.108700
     25 H205        -3.0920     1.6810     0.6570 hx         1 IXO       0.108700
     26 H108         0.8990    -1.3840     0.4150 h1         1 IXO       0.090700
     27 H208         1.0410    -0.9410    -1.2870 h1         1 IXO       0.090700
     28 H113         6.1200     0.4820     0.5750 h1         1 IXO       0.074700
     29 H213         5.5710     0.8150    -1.0820 h1         1 IXO       0.074700
     30 H114         3.8950     2.1590    -0.0710 hc         1 IXO       0.088200
     31 H214         4.0340     1.3420     1.4900 hc         1 IXO       0.088200
@<TRIPOS>BOND
     1     1     2 1   
     2     1    15 1   
     3     1    16 1   
     4     1    17 1   
     5     2     3 1   
     6     2     4 1   
     7     2     5 1   
     8     3    18 1   
     9     3    19 1   
    10     3    20 1   
    11     4    21 1   
    12     4    22 1   
    13     4    23 1   
    14     5     6 1   
    15     5    24 1   
    16     5    25 1   
    17     6     7 3   
    18     7     8 1   
    19     8     9 1   
    20     8    26 1   
    21     8    27 1   
    22     9    10 1   
    23    10    11 2   
    24    10    14 1   
    25    11    12 1   
    26    12    13 1   
    27    13    14 1   
    28    13    28 1   
    29    13    29 1   
    30    14    30 1   
    31    14    31 1   
@<TRIPOS>SUBSTRUCTURE
     1 IXO         1 TEMP              0 ****  ****    0 ROOT
