@<TRIPOS>MOLECULE
IXP
  116   123     1     0     0
SMALL
No Charge or Current Charge


@<TRIPOS>ATOM
      1 CCG         -4.9650     1.4520     1.3970 c3         1 IXP       0.143900
      2 OCF         -6.1250     1.6940     2.2130 os         1 IXP      -0.323600
      3 CBD         -7.4180     1.4740     1.7620 ca         1 IXP       0.157600
      4 CBE         -7.6660     1.0110     0.4550 ca         1 IXP      -0.217500
      5 CBC         -8.4920     1.7240     2.6500 ca         1 IXP       0.030100
      6 OCJ         -8.1480     2.1790     3.9250 os         1 IXP      -0.327100
      7 CCK         -9.0820     2.4890     4.9740 c3         1 IXP       0.148900
      8 CBB         -9.8300     1.5010     2.1990 ca         1 IXP       0.157600
      9 OCH        -10.9080     1.7350     3.0390 os         1 IXP      -0.323600
     10 CCI        -12.2740     1.5010     2.6530 c3         1 IXP       0.143900
     11 CBA        -10.0480     1.0350     0.8810 ca         1 IXP      -0.217500
     12 CAZ         -8.9790     0.7770     0.0090 ca         1 IXP      -0.024300
     13 CAL         -9.2590     0.2680    -1.4220 c6         1 IXP       0.058900
     14 CAK         -9.1700    -1.2690    -1.5460 c5         1 IXP      -0.178700
     15 CAJ         -7.7360    -1.7980    -1.4140 c5         1 IXP      -0.133700
     16 CAV         -8.0770    -3.3140    -1.3730 c5         1 IXP       0.168600
     17 OAW         -9.2730    -3.3810    -0.5500 os         1 IXP      -0.426100
     18 CAX         -9.9320    -2.1810    -0.5840 c          1 IXP       0.672100
     19 OAY        -10.8780    -1.9080     0.1390 o          1 IXP      -0.487000
     20 CAM         -8.2890     0.8980    -2.4400 ca         1 IXP      -0.061300
     21 CAO         -8.5360     2.2260    -2.8600 ca         1 IXP      -0.093000
     22 CAP         -7.6590     2.8140    -3.7750 ca         1 IXP       0.066100
     23 OAS         -7.7630     4.0690    -4.2810 os         1 IXP      -0.339100
     24 CAT         -6.5680     4.1740    -5.1350 c5         1 IXP       0.373600
     25 OAU         -5.8660     2.8800    -5.1530 os         1 IXP      -0.341100
     26 CAQ         -6.5820     2.1390    -4.2700 ca         1 IXP       0.050100
     27 CAR         -6.2970     0.8260    -3.8830 ca         1 IXP      -0.077000
     28 CAN         -7.1480     0.1880    -2.9490 ca         1 IXP      -0.091300
     29 CAI         -6.8050    -1.2660    -2.5340 c6         1 IXP       0.248600
     30 OAF         -5.4370    -1.2710    -2.0840 os         1 IXP      -0.446100
     31 CAE         -4.7130    -2.4280    -2.0180 c          1 IXP       0.595100
     32 OAH         -5.1120    -3.5200    -2.3950 o          1 IXP      -0.495000
     33 CAD         -3.3530    -2.1980    -1.3620 c3         1 IXP      -0.129400
     34 CAC         -3.4100    -2.4750     0.1670 c3         1 IXP      -0.152400
     35 CAB         -2.1070    -2.0760     0.8650 c          1 IXP       0.597100
     36 OAG         -1.8080    -0.9090     1.0730 o          1 IXP      -0.605100
     37 NAA         -1.3160    -3.1260     1.2710 ns         1 IXP      -0.504900
     38 CCE         -0.0180    -2.9870     1.9360 c3         1 IXP       0.103000
     39 CBF          1.1090    -2.6390     0.9430 c3         1 IXP      -0.091400
     40 CCD          2.4910    -2.5160     1.6210 c3         1 IXP      -0.100400
     41 CCC          3.6180    -2.1680     0.6270 c3         1 IXP       0.102000
     42 NCB          4.9240    -2.0820     1.2830 ns         1 IXP      -0.503900
     43 CBY          5.3660    -1.0050     2.0210 c          1 IXP       0.601100
     44 OCA          4.6920     0.0050     2.1690 o          1 IXP      -0.599100
     45 CBX          6.7700    -1.1570     2.6230 c3         1 IXP      -0.082200
     46 CBO          7.8380    -0.4260     1.8370 cc         1 IXP      -0.149400
     47 CBN          8.1580     0.9280     1.8400 cd         1 IXP       0.053400
     48 CCL          7.4760     1.9610     2.7110 c3         1 IXP      -0.041900
     49 CBK          8.7150    -0.9950     0.8440 ca         1 IXP      -0.038800
     50 CBL          8.7770    -2.3120     0.3640 ca         1 IXP      -0.118000
     51 CBG          9.6700    -2.6100    -0.6820 ca         1 IXP       0.126100
     52 OCM          9.7160    -3.9130    -1.1370 os         1 IXP      -0.346100
     53 CCN         10.5900    -4.3230    -2.2030 c3         1 IXP       0.149900
     54 CBH         10.4670    -1.5790    -1.2430 ca         1 IXP      -0.179000
     55 CBI         10.3810    -0.2610    -0.7500 ca         1 IXP      -0.076000
     56 CBJ          9.5100     0.0010     0.3230 ca         1 IXP      -0.115000
     57 NBM          9.2280     1.2450     0.9760 n          1 IXP      -0.105600
     58 CBP          9.6620     2.5430     0.6030 c          1 IXP       0.638700
     59 OBW          8.9040     3.5080     0.6210 o          1 IXP      -0.518100
     60 CBQ         11.1350     2.7380     0.3060 ca         1 IXP      -0.163600
     61 CBR         11.5510     3.8470    -0.4670 ca         1 IXP      -0.053500
     62 CBS         12.9140     4.0570    -0.7390 ca         1 IXP      -0.115500
     63 CBT         13.8770     3.1710    -0.2330 ca         1 IXP       0.141000
     64 CBU         13.4810     2.0790     0.5530 ca         1 IXP      -0.115500
     65 CBV         12.1190     1.8650     0.8290 ca         1 IXP      -0.053500
     66 Cl          15.5820     3.4370    -0.5740 cl         1 IXP      -0.189000
     67 H1          -4.0510     1.6810     1.9580 h1         1 IXP       0.043867
     68 H2          -4.9180     0.4010     1.0870 h1         1 IXP       0.043867
     69 H3          -4.9800     2.0840     0.5000 h1         1 IXP       0.043867
     70 H4          -6.8420     0.8270    -0.2250 ha         1 IXP       0.130000
     71 H5          -8.5450     2.8230     5.8700 h1         1 IXP       0.033367
     72 H6          -9.7600     3.2970     4.6700 h1         1 IXP       0.033367
     73 H7          -9.6720     1.6040     5.2480 h1         1 IXP       0.033367
     74 H8         -12.4310     0.4470     2.3900 h1         1 IXP       0.043867
     75 H9         -12.9490     1.7470     3.4820 h1         1 IXP       0.043867
     76 H10        -12.5500     2.1270     1.7950 h1         1 IXP       0.043867
     77 H11        -11.0550     0.8590     0.5150 ha         1 IXP       0.130000
     78 H12        -10.2810     0.5630    -1.6990 hc         1 IXP       0.079700
     79 H13         -9.5290    -1.5210    -2.5530 hc         1 IXP       0.085700
     80 H14         -7.2830    -1.4970    -0.4620 hc         1 IXP       0.097700
     81 H15         -8.3100    -3.7060    -2.3740 h1         1 IXP       0.075700
     82 H16         -7.2820    -3.9280    -0.9310 h1         1 IXP       0.075700
     83 H17         -9.3870     2.7860    -2.4810 ha         1 IXP       0.142000
     84 H18         -6.8670     4.4450    -6.1540 h2         1 IXP       0.068200
     85 H19         -5.8990     4.9390    -4.7230 h2         1 IXP       0.068200
     86 H20         -5.4300     0.3140    -4.2940 ha         1 IXP       0.139000
     87 H21         -6.8980    -1.8950    -3.4320 h1         1 IXP       0.075700
     88 H22         -2.6100    -2.8590    -1.8240 hc         1 IXP       0.091200
     89 H23         -3.0720    -1.1470    -1.5000 hc         1 IXP       0.091200
     90 H24         -4.2260    -1.8820     0.5970 hc         1 IXP       0.070700
     91 H25         -3.6110    -3.5420     0.3200 hc         1 IXP       0.070700
     92 H26         -1.6540    -4.0590     1.0650 hn         1 IXP       0.311500
     93 H27         -0.0900    -2.2050     2.7040 h1         1 IXP       0.054700
     94 H28          0.2180    -3.9340     2.4400 h1         1 IXP       0.054700
     95 H29          1.1540    -3.4130     0.1670 hc         1 IXP       0.044700
     96 H30          0.8700    -1.6940     0.4390 hc         1 IXP       0.044700
     97 H31          2.4420    -1.7440     2.3990 hc         1 IXP       0.050700
     98 H32          2.7340    -3.4620     2.1210 hc         1 IXP       0.050700
     99 H33          3.6690    -2.9400    -0.1520 h1         1 IXP       0.056200
    100 H34          3.3980    -1.2090     0.1370 h1         1 IXP       0.056200
    101 H35          5.5570    -2.8690     1.2010 hn         1 IXP       0.311500
    102 H36          6.7510    -0.7760     3.6490 hc         1 IXP       0.062700
    103 H37          7.0320    -2.2200     2.6570 hc         1 IXP       0.062700
    104 H38          8.1990     2.6730     3.1260 hc         1 IXP       0.061700
    105 H39          6.7350     2.5280     2.1360 hc         1 IXP       0.061700
    106 H40          6.9560     1.5080     3.5610 hc         1 IXP       0.061700
    107 H41          8.1430    -3.0910     0.7770 ha         1 IXP       0.124000
    108 H42         10.3590    -3.7790    -3.1280 h1         1 IXP       0.040033
    109 H43         11.6400    -4.1410    -1.9400 h1         1 IXP       0.040033
    110 H44         10.4700    -5.3960    -2.4020 h1         1 IXP       0.040033
    111 H45         11.1490    -1.7790    -2.0650 ha         1 IXP       0.119000
    112 H46         10.9760     0.5250    -1.2080 ha         1 IXP       0.123000
    113 H47         10.8170     4.5440    -0.8670 ha         1 IXP       0.135000
    114 H48         13.2240     4.9070    -1.3420 ha         1 IXP       0.136500
    115 H49         14.2310     1.4010     0.9540 ha         1 IXP       0.136500
    116 H50         11.8390     1.0210     1.4570 ha         1 IXP       0.135000
@<TRIPOS>BOND
     1     1     2 1   
     2     1    67 1   
     3     1    68 1   
     4     1    69 1   
     5     2     3 1   
     6     3     4 ar  
     7     3     5 ar  
     8     4    12 ar  
     9     4    70 1   
    10     5     6 1   
    11     5     8 ar  
    12     6     7 1   
    13     7    71 1   
    14     7    72 1   
    15     7    73 1   
    16     8     9 1   
    17     8    11 ar  
    18     9    10 1   
    19    10    74 1   
    20    10    75 1   
    21    10    76 1   
    22    11    12 ar  
    23    11    77 1   
    24    12    13 1   
    25    13    14 1   
    26    13    20 1   
    27    13    78 1   
    28    14    15 1   
    29    14    18 1   
    30    14    79 1   
    31    15    16 1   
    32    15    29 1   
    33    15    80 1   
    34    16    17 1   
    35    16    81 1   
    36    16    82 1   
    37    17    18 1   
    38    18    19 2   
    39    20    21 ar  
    40    20    28 ar  
    41    21    22 ar  
    42    21    83 1   
    43    22    23 1   
    44    22    26 ar  
    45    23    24 1   
    46    24    25 1   
    47    24    84 1   
    48    24    85 1   
    49    25    26 1   
    50    26    27 ar  
    51    27    28 ar  
    52    27    86 1   
    53    28    29 1   
    54    29    30 1   
    55    29    87 1   
    56    30    31 1   
    57    31    32 2   
    58    31    33 1   
    59    33    34 1   
    60    33    88 1   
    61    33    89 1   
    62    34    35 1   
    63    34    90 1   
    64    34    91 1   
    65    35    36 2   
    66    35    37 1   
    67    37    38 1   
    68    37    92 1   
    69    38    39 1   
    70    38    93 1   
    71    38    94 1   
    72    39    40 1   
    73    39    95 1   
    74    39    96 1   
    75    40    41 1   
    76    40    97 1   
    77    40    98 1   
    78    41    42 1   
    79    41    99 1   
    80    41   100 1   
    81    42    43 1   
    82    42   101 1   
    83    43    44 2   
    84    43    45 1   
    85    45    46 1   
    86    45   102 1   
    87    45   103 1   
    88    46    47 2   
    89    46    49 1   
    90    47    48 1   
    91    47    57 1   
    92    48   104 1   
    93    48   105 1   
    94    48   106 1   
    95    49    50 ar  
    96    49    56 ar  
    97    50    51 ar  
    98    50   107 1   
    99    51    52 1   
   100    51    54 ar  
   101    52    53 1   
   102    53   108 1   
   103    53   109 1   
   104    53   110 1   
   105    54    55 ar  
   106    54   111 1   
   107    55    56 ar  
   108    55   112 1   
   109    56    57 1   
   110    57    58 1   
   111    58    59 2   
   112    58    60 1   
   113    60    61 ar  
   114    60    65 ar  
   115    61    62 ar  
   116    61   113 1   
   117    62    63 ar  
   118    62   114 1   
   119    63    64 ar  
   120    63    66 1   
   121    64    65 ar  
   122    64   115 1   
   123    65   116 1   
@<TRIPOS>SUBSTRUCTURE
     1 IXP         1 TEMP              0 ****  ****    0 ROOT
