@<TRIPOS>MOLECULE
IXP
  116   123     1     0     0
SMALL
abcg2


@<TRIPOS>ATOM
      1 CCG         -7.8400     2.0650     2.6020 c3         1 IXP       0.143900
      2 OCF         -9.1330     1.6750     3.0170 os         1 IXP      -0.323600
      3 CBD         -9.9290     1.0520     2.1290 ca         1 IXP       0.157600
      4 CBE         -9.5700     0.7840     0.8100 ca         1 IXP      -0.217500
      5 CBC        -11.1840     0.6670     2.6050 ca         1 IXP       0.030100
      6 OCJ        -11.5240     0.9030     3.8990 os         1 IXP      -0.327100
      7 CCK        -12.1750     2.1490     4.1130 c3         1 IXP       0.148900
      8 CBB        -12.0810     0.0300     1.7440 ca         1 IXP       0.157600
      9 OCH        -13.2700    -0.2930     2.2810 os         1 IXP      -0.323600
     10 CCI        -14.2000    -0.9950     1.4800 c3         1 IXP       0.143900
     11 CBA        -11.7180    -0.2330     0.4250 ca         1 IXP      -0.217500
     12 CAZ        -10.4620     0.1380    -0.0390 ca         1 IXP      -0.024300
     13 CAL        -10.0860    -0.1800    -1.4750 c6         1 IXP       0.058900
     14 CAK         -9.4210    -1.5390    -1.6480 c5         1 IXP      -0.178700
     15 CAJ         -8.0390    -1.5760    -1.0330 c5         1 IXP      -0.133700
     16 CAV         -7.7930    -3.0760    -0.9680 c5         1 IXP       0.168600
     17 OAW         -9.1020    -3.6230    -0.7050 os         1 IXP      -0.426100
     18 CAX        -10.0640    -2.7800    -1.0900 c          1 IXP       0.672100
     19 OAY        -11.2250    -3.0670    -1.0170 o          1 IXP      -0.487000
     20 CAM         -9.1380     0.8500    -2.0580 ca         1 IXP      -0.061300
     21 CAO         -9.6980     2.0860    -2.4290 ca         1 IXP      -0.093000
     22 CAP         -8.8670     3.0400    -2.9430 ca         1 IXP       0.066100
     23 OAS         -9.1670     4.2810    -3.3890 os         1 IXP      -0.339100
     24 CAT         -7.9250     4.9110    -3.6810 c5         1 IXP       0.373600
     25 OAU         -6.9310     3.8950    -3.6660 os         1 IXP      -0.341100
     26 CAQ         -7.5100     2.8050    -3.1090 ca         1 IXP       0.050100
     27 CAR         -6.9380     1.6150    -2.7570 ca         1 IXP      -0.077000
     28 CAN         -7.7720     0.6180    -2.2110 ca         1 IXP      -0.091300
     29 CAI         -7.1130    -0.7020    -1.8480 c6         1 IXP       0.248600
     30 OAF         -5.9300    -0.3730    -1.1050 os         1 IXP      -0.446100
     31 CAE         -4.9140    -1.2320    -1.0880 c          1 IXP       0.595100
     32 OAH         -4.9310    -2.2980    -1.6490 o          1 IXP      -0.495000
     33 CAD         -3.7650    -0.6920    -0.2830 c3         1 IXP      -0.129400
     34 CAC         -2.5910    -1.6520    -0.2270 c3         1 IXP      -0.152400
     35 CAB         -1.4900    -1.1540     0.6870 c          1 IXP       0.597100
     36 OAG         -1.7220    -0.4990     1.6950 o          1 IXP      -0.605100
     37 NAA         -0.2500    -1.5140     0.3240 ns         1 IXP      -0.504900
     38 CCE          0.9220    -1.2660     1.1370 c3         1 IXP       0.103000
     39 CBF          2.1900    -1.4640     0.3230 c3         1 IXP      -0.091400
     40 CCD          3.4410    -1.2660     1.1670 c3         1 IXP      -0.100400
     41 CCC          4.7130    -1.4930     0.3570 c3         1 IXP       0.102000
     42 NCB          5.9160    -1.3380     1.1430 ns         1 IXP      -0.503900
     43 CBY          6.5520    -0.1690     1.3080 c          1 IXP       0.601100
     44 OCA          6.2160     0.8690     0.7560 o          1 IXP      -0.599100
     45 CBX          7.7710    -0.2140     2.2190 c3         1 IXP      -0.082200
     46 CBO          9.0140     0.0360     1.4330 cc         1 IXP      -0.149400
     47 CBN          9.6050     1.2340     1.1840 cd         1 IXP       0.053400
     48 CCL          9.2020     2.5730     1.6850 c3         1 IXP      -0.041900
     49 CBK          9.7740    -0.9800     0.7590 ca         1 IXP      -0.038800
     50 CBL          9.5850    -2.3520     0.6370 ca         1 IXP      -0.118000
     51 CBG         10.4770    -3.0870    -0.1340 ca         1 IXP       0.126100
     52 OCM         10.2450    -4.4150    -0.2110 os         1 IXP      -0.346100
     53 CCN         11.0970    -5.2070    -1.0120 c3         1 IXP       0.149900
     54 CBH         11.5340    -2.4420    -0.7910 ca         1 IXP      -0.179000
     55 CBI         11.7250    -1.0720    -0.6720 ca         1 IXP      -0.076000
     56 CBJ         10.8550    -0.3480     0.1270 ca         1 IXP      -0.115000
     57 NBM         10.7530     1.0210     0.4070 n          1 IXP      -0.105600
     58 CBP         11.5630     2.0260    -0.1090 c          1 IXP       0.638700
     59 OBW         11.1230     3.1150    -0.3930 o          1 IXP      -0.518100
     60 CBQ         13.0060     1.7110    -0.2490 ca         1 IXP      -0.163600
     61 CBR         13.7060     2.2190    -1.3390 ca         1 IXP      -0.053500
     62 CBS         15.0650     1.9880    -1.4670 ca         1 IXP      -0.115500
     63 CBT         15.7230     1.2740    -0.4750 ca         1 IXP       0.141000
     64 CBU         15.0470     0.7850     0.6330 ca         1 IXP      -0.115500
     65 CBV         13.6840     0.9980     0.7370 ca         1 IXP      -0.053500
     66 CL          17.4210     0.9920    -0.6230 cl         1 IXP      -0.189000
     67 H1          -7.3720     2.5450     3.4570 h1         1 IXP       0.043867
     68 H2          -7.2300     1.2070     2.3060 h1         1 IXP       0.043867
     69 H3          -7.8730     2.7770     1.7730 h1         1 IXP       0.043867
     70 H4          -8.6070     1.0960     0.4310 ha         1 IXP       0.130000
     71 H5         -12.3970     2.2170     5.1760 h1         1 IXP       0.033367
     72 H6         -11.5370     2.9910     3.8350 h1         1 IXP       0.033367
     73 H7         -13.1120     2.2170     3.5550 h1         1 IXP       0.033367
     74 H8         -13.8020    -1.9540     1.1390 h1         1 IXP       0.043867
     75 H9         -15.0690    -1.1780     2.1060 h1         1 IXP       0.043867
     76 H10        -14.5120    -0.4130     0.6100 h1         1 IXP       0.043867
     77 H11        -12.4030    -0.7280    -0.2490 ha         1 IXP       0.130000
     78 H12        -11.0020    -0.1700    -2.0710 hc         1 IXP       0.079700
     79 H13         -9.3350    -1.7240    -2.7300 hc         1 IXP       0.085700
     80 H14         -8.0940    -1.1820    -0.0130 hc         1 IXP       0.097700
     81 H15         -7.4280    -3.4780    -1.9150 h1         1 IXP       0.075700
     82 H16         -7.1350    -3.3940    -0.1630 h1         1 IXP       0.075700
     83 H17        -10.7590     2.2640    -2.3060 ha         1 IXP       0.142000
     84 H18         -7.9680     5.3710    -4.6680 h2         1 IXP       0.068200
     85 H19         -7.7020     5.6620    -2.9160 h2         1 IXP       0.068200
     86 H20         -5.8800     1.4470    -2.9020 ha         1 IXP       0.139000
     87 H21         -6.8280    -1.2200    -2.7710 h1         1 IXP       0.075700
     88 H22         -3.4650     0.2670    -0.7150 hc         1 IXP       0.091200
     89 H23         -4.1290    -0.4640     0.7220 hc         1 IXP       0.091200
     90 H24         -2.9160    -2.6210     0.1640 hc         1 IXP       0.070700
     91 H25         -2.2000    -1.8420    -1.2280 hc         1 IXP       0.070700
     92 H26         -0.1400    -2.1030    -0.4850 hn         1 IXP       0.311500
     93 H27          0.8830    -0.2460     1.5220 h1         1 IXP       0.054700
     94 H28          0.9320    -1.9350     2.0050 h1         1 IXP       0.054700
     95 H29          2.1960    -2.4720    -0.1060 hc         1 IXP       0.044700
     96 H30          2.1940    -0.7650    -0.5190 hc         1 IXP       0.044700
     97 H31          3.4540    -0.2550     1.5820 hc         1 IXP       0.050700
     98 H32          3.4280    -1.9570     2.0150 hc         1 IXP       0.050700
     99 H33          4.7150    -2.5020    -0.0580 h1         1 IXP       0.056200
    100 H34          4.7520    -0.8020    -0.4850 h1         1 IXP       0.056200
    101 H35          6.2280    -2.1330     1.6750 hn         1 IXP       0.311500
    102 H36          7.6340     0.5510     2.9840 hc         1 IXP       0.062700
    103 H37          7.8430    -1.1690     2.7440 hc         1 IXP       0.062700
    104 H38         10.0400     3.1200     2.1150 hc         1 IXP       0.061700
    105 H39          8.7700     3.1910     0.8980 hc         1 IXP       0.061700
    106 H40          8.4500     2.4540     2.4610 hc         1 IXP       0.061700
    107 H41          8.7520    -2.8500     1.1180 ha         1 IXP       0.124000
    108 H42         11.0840    -4.8950    -2.0590 h1         1 IXP       0.040033
    109 H43         12.1300    -5.1920    -0.6530 h1         1 IXP       0.040033
    110 H44         10.7220    -6.2260    -0.9470 h1         1 IXP       0.040033
    111 H45         12.2240    -2.9950    -1.4130 ha         1 IXP       0.119000
    112 H46         12.5390    -0.6150    -1.2140 ha         1 IXP       0.123000
    113 H47         13.1890     2.7780    -2.1070 ha         1 IXP       0.135000
    114 H48         15.6040     2.3650    -2.3250 ha         1 IXP       0.136500
    115 H49         15.5750     0.2440     1.4060 ha         1 IXP       0.136500
    116 H50         13.1570     0.6130     1.6010 ha         1 IXP       0.135000
@<TRIPOS>BOND
     1     1     2 1   
     2     1    67 1   
     3     1    68 1   
     4     1    69 1   
     5     2     3 1   
     6     3     4 ar  
     7     3     5 ar  
     8     4    12 ar  
     9     4    70 1   
    10     5     6 1   
    11     5     8 ar  
    12     6     7 1   
    13     7    71 1   
    14     7    72 1   
    15     7    73 1   
    16     8     9 1   
    17     8    11 ar  
    18     9    10 1   
    19    10    74 1   
    20    10    75 1   
    21    10    76 1   
    22    11    12 ar  
    23    11    77 1   
    24    12    13 1   
    25    13    14 1   
    26    13    20 1   
    27    13    78 1   
    28    14    15 1   
    29    14    18 1   
    30    14    79 1   
    31    15    16 1   
    32    15    29 1   
    33    15    80 1   
    34    16    17 1   
    35    16    81 1   
    36    16    82 1   
    37    17    18 1   
    38    18    19 2   
    39    20    21 ar  
    40    20    28 ar  
    41    21    22 ar  
    42    21    83 1   
    43    22    23 1   
    44    22    26 ar  
    45    23    24 1   
    46    24    25 1   
    47    24    84 1   
    48    24    85 1   
    49    25    26 1   
    50    26    27 ar  
    51    27    28 ar  
    52    27    86 1   
    53    28    29 1   
    54    29    30 1   
    55    29    87 1   
    56    30    31 1   
    57    31    32 2   
    58    31    33 1   
    59    33    34 1   
    60    33    88 1   
    61    33    89 1   
    62    34    35 1   
    63    34    90 1   
    64    34    91 1   
    65    35    36 2   
    66    35    37 1   
    67    37    38 1   
    68    37    92 1   
    69    38    39 1   
    70    38    93 1   
    71    38    94 1   
    72    39    40 1   
    73    39    95 1   
    74    39    96 1   
    75    40    41 1   
    76    40    97 1   
    77    40    98 1   
    78    41    42 1   
    79    41    99 1   
    80    41   100 1   
    81    42    43 1   
    82    42   101 1   
    83    43    44 2   
    84    43    45 1   
    85    45    46 1   
    86    45   102 1   
    87    45   103 1   
    88    46    47 2   
    89    46    49 1   
    90    47    48 1   
    91    47    57 1   
    92    48   104 1   
    93    48   105 1   
    94    48   106 1   
    95    49    50 ar  
    96    49    56 ar  
    97    50    51 ar  
    98    50   107 1   
    99    51    52 1   
   100    51    54 ar  
   101    52    53 1   
   102    53   108 1   
   103    53   109 1   
   104    53   110 1   
   105    54    55 ar  
   106    54   111 1   
   107    55    56 ar  
   108    55   112 1   
   109    56    57 1   
   110    57    58 1   
   111    58    59 2   
   112    58    60 1   
   113    60    61 ar  
   114    60    65 ar  
   115    61    62 ar  
   116    61   113 1   
   117    62    63 ar  
   118    62   114 1   
   119    63    64 ar  
   120    63    66 1   
   121    64    65 ar  
   122    64   115 1   
   123    65   116 1   
@<TRIPOS>SUBSTRUCTURE
     1 IXP         1 TEMP              0 ****  ****    0 ROOT
