@<TRIPOS>MOLECULE
IXQ
   48    51     1     0     0
SMALL
bcc


@<TRIPOS>ATOM
      1 C1         -27.5700    17.1760   -28.3550 c3         1 IXQ      -0.259300
      2 C6         -24.9290    15.9890   -30.1080 c3         1 IXQ       0.203100
      3 C7         -24.9150    15.0100   -27.8310 ca         1 IXQ       0.652200
      4 C11        -23.2730    13.7390   -26.6890 ca         1 IXQ      -0.079000
      5 C12        -24.0040    13.9500   -27.8490 ca         1 IXQ      -0.183600
      6 C15        -23.8420    10.7940   -28.2050 ca         1 IXQ       0.712200
      7 C17        -25.7300     9.9180   -27.3150 ca         1 IXQ       0.697700
      8 C19        -23.9020     8.6100   -27.2940 ca         1 IXQ       0.473200
      9 C21        -27.1540    10.0790   -26.9920 cc         1 IXQ       0.339800
     10 N22        -27.8450     9.0880   -26.3750 na         1 IXQ      -0.230300
     11 C23        -29.1250     9.5290   -26.2210 ca         1 IXQ      -0.090200
     12 C24        -30.2590     8.9500   -25.6640 ca         1 IXQ      -0.105000
     13 C27        -31.4210    10.9980   -26.2500 ca         1 IXQ       0.107900
     14 C30        -29.1280    10.8200   -26.7810 ca         1 IXQ       0.084400
     15 S2         -27.2770    15.5150   -28.9190 s6         1 IXQ       1.249900
     16 O3         -27.7630    14.5820   -27.9180 o          1 IXQ      -0.591300
     17 O4         -27.7760    15.4240   -30.2810 o          1 IXQ      -0.591300
     18 N5         -25.6300    15.3120   -29.0150 nh         1 IXQ      -0.745200
     19 N8         -25.1400    15.7650   -26.7700 nb         1 IXQ      -0.714000
     20 C9         -24.4610    15.5220   -25.6570 ca         1 IXQ       0.435200
     21 C10        -23.5000    14.5300   -25.5730 ca         1 IXQ      -0.243300
     22 C13        -23.8330    13.0840   -29.0760 c3         1 IXQ       0.291100
     23 N14        -23.2120    11.8150   -28.8070 nu         1 IXQ      -0.877900
     24 N16        -25.1300    10.9440   -27.8960 nb         1 IXQ      -0.725000
     25 N18        -25.1980     8.7540   -26.9870 nb         1 IXQ      -0.764000
     26 C20        -23.1690     9.5900   -27.9060 ca         1 IXQ      -0.441600
     27 C25        -31.4100     9.7110   -25.6910 ca         1 IXQ      -0.000600
     28 CL26       -32.8770     9.0900   -25.0320 cl         1 IXQ      -0.085400
     29 F28        -32.5770    11.6720   -26.2430 f          1 IXQ      -0.131900
     30 C29        -30.3030    11.5750   -26.7970 ca         1 IXQ      -0.085000
     31 N31        -27.8860    11.1310   -27.2520 nd         1 IXQ      -0.494100
     32 H1         -27.1500    17.2980   -27.3610 h1         1 IXQ       0.103367
     33 H2         -27.1140    17.8800   -29.0480 h1         1 IXQ       0.103367
     34 H3         -28.6480    17.3290   -28.3400 h1         1 IXQ       0.103367
     35 H4         -23.8630    15.8020   -30.0020 h1         1 IXQ       0.050033
     36 H5         -25.2460    15.6020   -31.0720 h1         1 IXQ       0.050033
     37 H6         -25.0690    17.0720   -30.0840 h1         1 IXQ       0.050033
     38 H7         -22.5420    12.9420   -26.6440 ha         1 IXQ       0.137000
     39 H8         -23.4440     7.6640   -27.0320 h4         1 IXQ       0.023100
     40 H9         -27.4560     8.2010   -26.0910 hn         1 IXQ       0.327700
     41 H10        -30.2530     7.9590   -25.2330 ha         1 IXQ       0.152000
     42 H11        -24.6870    16.1520   -24.8050 h4         1 IXQ       0.026100
     43 H12        -22.9480    14.3750   -24.6570 ha         1 IXQ       0.147000
     44 H13        -23.2030    13.5910   -29.8080 h1         1 IXQ       0.075700
     45 H14        -24.8050    12.9380   -29.5500 h1         1 IXQ       0.075700
     46 H15        -22.2330    11.7110   -29.0160 hn         1 IXQ       0.442800
     47 H16        -22.1240     9.4500   -28.1460 ha         1 IXQ       0.149000
     48 H17        -30.3340    12.5710   -27.2210 ha         1 IXQ       0.180000
@<TRIPOS>BOND
     1     1    15 1   
     2     1    32 1   
     3     1    33 1   
     4     1    34 1   
     5     2    18 1   
     6     2    35 1   
     7     2    36 1   
     8     2    37 1   
     9     3     5 ar  
    10     3    18 1   
    11     3    19 ar  
    12     4     5 ar  
    13     4    21 ar  
    14     4    38 1   
    15     5    22 1   
    16     6    23 1   
    17     6    24 ar  
    18     6    26 ar  
    19     7     9 1   
    20     7    24 ar  
    21     7    25 ar  
    22     8    25 ar  
    23     8    26 ar  
    24     8    39 1   
    25     9    10 1   
    26     9    31 2   
    27    10    11 1   
    28    10    40 1   
    29    11    12 ar  
    30    11    14 ar  
    31    12    27 ar  
    32    12    41 1   
    33    13    27 ar  
    34    13    29 1   
    35    13    30 ar  
    36    14    30 ar  
    37    14    31 1   
    38    15    16 2   
    39    15    17 2   
    40    15    18 1   
    41    19    20 ar  
    42    20    21 ar  
    43    20    42 1   
    44    21    43 1   
    45    22    23 1   
    46    22    44 1   
    47    22    45 1   
    48    23    46 1   
    49    26    47 1   
    50    27    28 1   
    51    30    48 1   
@<TRIPOS>SUBSTRUCTURE
     1 IXQ         1 TEMP              0 ****  ****    0 ROOT
