@<TRIPOS>MOLECULE
IXQ
   48    51     1     0     0
SMALL
No Charge or Current Charge


@<TRIPOS>ATOM
      1 C1         -28.0750    14.8600   -28.6170 c3         1 IXQ      -0.370100
      2 C6         -25.1310    16.7030   -29.6260 c3         1 IXQ       0.203100
      3 C7         -24.9150    14.9240   -27.9200 ca         1 IXQ       0.586900
      4 C11        -23.4160    13.7280   -26.4380 ca         1 IXQ      -0.061000
      5 C12        -23.8800    13.9730   -27.7480 ca         1 IXQ      -0.118300
      6 C15        -23.6980    10.8180   -28.2900 ca         1 IXQ       0.383900
      7 C17        -25.7280    10.0810   -27.4770 ca         1 IXQ       0.171700
      8 C19        -24.1520     8.4850   -28.0270 ca         1 IXQ       0.144900
      9 C21        -27.0750    10.4090   -26.9700 cc         1 IXQ       0.339800
     10 N22        -28.0460     9.4470   -26.6760 na         1 IXQ      -0.280600
     11 C23        -29.1490    10.1130   -26.2370 ca         1 IXQ      -0.090200
     12 C24        -30.3940     9.6260   -25.8210 ca         1 IXQ      -0.087000
     13 C27        -31.0470    11.9580   -25.4370 ca         1 IXQ       0.143000
     14 C30        -28.8400    11.4430   -26.2630 ca         1 IXQ       0.084400
     15 S2         -26.7710    14.5360   -29.7920 s6         1 IXQ       1.219100
     16 O3         -26.4870    13.1000   -29.7900 o          1 IXQ      -0.520500
     17 O4         -27.1130    15.2080   -31.0500 o          1 IXQ      -0.520500
     18 N5         -25.3780    15.3260   -29.1650 nh         1 IXQ      -0.745200
     19 N8         -25.4480    15.6250   -26.9010 nb         1 IXQ      -0.714000
     20 C9         -25.0100    15.3660   -25.6510 ca         1 IXQ       0.369900
     21 C10        -24.0040    14.4300   -25.3760 ca         1 IXQ      -0.160000
     22 C13        -23.2440    13.2660   -28.9460 c3         1 IXQ       0.291100
     23 N14        -22.8560    11.8640   -28.6560 nu         1 IXQ      -0.933100
     24 N16        -24.9250    11.1120   -27.8300 nb         1 IXQ      -0.199000
     25 N18        -25.3850     8.7710   -27.5660 nb         1 IXQ      -0.238000
     26 C20        -23.2580     9.4980   -28.4040 ca         1 IXQ      -0.293000
     27 C25        -31.3580    10.5730   -25.4150 ca         1 IXQ       0.091000
     28 Cl26       -32.9430    10.0150   -24.8820 cl         1 IXQ      -0.177000
     29 F28        -31.9700    12.8680   -25.0480 f          1 IXQ      -0.167000
     30 C29        -29.7790    12.4040   -25.8640 ca         1 IXQ      -0.067000
     31 N31        -27.5430    11.6530   -26.7150 nd         1 IXQ      -0.494100
     32 H1         -27.7900    14.3900   -27.6710 h1         1 IXQ       0.103367
     33 H2         -28.1630    15.9450   -28.5140 h1         1 IXQ       0.103367
     34 H3         -28.9920    14.4180   -29.0170 h1         1 IXQ       0.103367
     35 H4         -24.2560    17.1280   -29.1170 h1         1 IXQ       0.050033
     36 H5         -24.9260    16.7190   -30.7040 h1         1 IXQ       0.050033
     37 H6         -25.9970    17.3460   -29.4180 h1         1 IXQ       0.050033
     38 H7         -22.6180    13.0140   -26.2480 ha         1 IXQ       0.119000
     39 H8         -23.8800     7.4330   -28.0930 h4         1 IXQ       0.023100
     40 H9         -27.9320     8.4460   -26.7790 hn         1 IXQ       0.378000
     41 H10        -30.6140     8.5610   -25.8110 ha         1 IXQ       0.134000
     42 H11        -25.4730    15.9360   -24.8460 h4         1 IXQ       0.026100
     43 H12        -23.6780    14.2660   -24.3530 ha         1 IXQ       0.129000
     44 H13        -22.3580    13.8420   -29.2470 h1         1 IXQ       0.075700
     45 H14        -23.9290    13.2800   -29.8040 h1         1 IXQ       0.075700
     46 H15        -21.9320    11.5750   -28.9810 hn         1 IXQ       0.498000
     47 H16        -22.2670     9.2570   -28.7750 ha         1 IXQ       0.131000
     48 H17        -29.5370    13.4620   -25.8820 ha         1 IXQ       0.162000
@<TRIPOS>BOND
     1     1    15 1   
     2     1    32 1   
     3     1    33 1   
     4     1    34 1   
     5     2    18 1   
     6     2    35 1   
     7     2    36 1   
     8     2    37 1   
     9     3     5 ar  
    10     3    18 1   
    11     3    19 ar  
    12     4     5 ar  
    13     4    21 ar  
    14     4    38 1   
    15     5    22 1   
    16     6    23 1   
    17     6    24 ar  
    18     6    26 ar  
    19     7     9 1   
    20     7    24 ar  
    21     7    25 ar  
    22     8    25 ar  
    23     8    26 ar  
    24     8    39 1   
    25     9    10 1   
    26     9    31 2   
    27    10    11 1   
    28    10    40 1   
    29    11    12 ar  
    30    11    14 ar  
    31    12    27 ar  
    32    12    41 1   
    33    13    27 ar  
    34    13    29 1   
    35    13    30 ar  
    36    14    30 ar  
    37    14    31 1   
    38    15    16 2   
    39    15    17 2   
    40    15    18 1   
    41    19    20 ar  
    42    20    21 ar  
    43    20    42 1   
    44    21    43 1   
    45    22    23 1   
    46    22    44 1   
    47    22    45 1   
    48    23    46 1   
    49    26    47 1   
    50    27    28 1   
    51    30    48 1   
@<TRIPOS>SUBSTRUCTURE
     1 IXQ         1 TEMP              0 ****  ****    0 ROOT
