@<TRIPOS>MOLECULE
IXS
   90    92     1     0     0
SMALL
abcg2


@<TRIPOS>ATOM
      1 O2          -5.0510     1.7650     2.7610 o          1 IXS      -0.526500
      2 S1          -6.1140     1.3350     1.8690 s6         1 IXS       1.211100
      3 O1          -7.1170     0.4020     2.3580 o          1 IXS      -0.526500
      4 C22         -6.9530     2.7670     1.2450 c3         1 IXS      -0.354100
      5 N24         -5.4000     0.6860     0.5080 nh         1 IXS      -0.791300
      6 C29         -6.2080    -0.2360    -0.2850 c3         1 IXS       0.206100
      7 C19         -3.9900     0.5830     0.4560 ca         1 IXS       0.260000
      8 C20         -3.2150     1.7320     0.3560 ca         1 IXS      -0.035000
      9 C15         -1.8360     1.6370     0.2250 ca         1 IXS      -0.144600
     10 C14         -1.0440     2.9050     0.1430 c          1 IXS       0.614700
     11 O5          -1.4060     3.9120     0.7330 o          1 IXS      -0.590100
     12 N13          0.0700     2.8440    -0.6040 ns         1 IXS      -0.501900
     13 C12          0.9500     3.9890    -0.8030 c3         1 IXS       0.162000
     14 C50          0.4260     4.9210    -1.8910 c3         1 IXS      -0.110100
     15 C5           2.3500     3.4940    -1.0860 ca         1 IXS      -0.113300
     16 C6           2.6660     2.8850    -2.2990 ca         1 IXS      -0.071500
     17 C7           3.9500     2.4330    -2.5600 ca         1 IXS      -0.153500
     18 C4           3.3520     3.6370    -0.1320 ca         1 IXS      -0.071500
     19 C3           4.6460     3.1960    -0.3760 ca         1 IXS      -0.153500
     20 C2           4.9190     2.6020    -1.5910 ca         1 IXS       0.171000
     21 F1           6.1650     2.1640    -1.8370 f          1 IXS      -0.181000
     22 C18         -3.3800    -0.6640     0.4520 ca         1 IXS      -0.059000
     23 C17         -2.0030    -0.7630     0.2970 ca         1 IXS      -0.142600
     24 C16         -1.2310     0.3850     0.1880 ca         1 IXS      -0.069000
     25 C34         -1.3770    -2.1220     0.3090 c          1 IXS       0.623700
     26 O4          -1.7350    -2.9740     1.1070 o          1 IXS      -0.584100
     27 N35         -0.4250    -2.2940    -0.6170 ns         1 IXS      -0.482900
     28 C36          0.3200    -3.5130    -0.8190 c3         1 IXS       0.112700
     29 C56         -0.2300    -4.3000    -2.0210 c3         1 IXS      -0.049100
     30 C58         -1.7040    -4.5510    -1.8980 ca         1 IXS      -0.077300
     31 C65         -2.1820    -5.6690    -1.2190 ca         1 IXS      -0.098500
     32 C64         -3.5440    -5.8630    -1.0360 ca         1 IXS      -0.107500
     33 C63         -4.4530    -4.9330    -1.5240 ca         1 IXS      -0.105000
     34 C62         -3.9890    -3.8170    -2.2070 ca         1 IXS      -0.107500
     35 C61         -2.6260    -3.6340    -2.3970 ca         1 IXS      -0.098500
     36 C37          1.7950    -3.1790    -1.0110 c3         1 IXS       0.148800
     37 N38          2.3310    -2.5120     0.1550 n7         1 IXS      -0.848400
     38 C39          3.6570    -1.9620    -0.0420 c3         1 IXS       0.103500
     39 C8           3.5940    -0.6430    -0.8140 c3         1 IXS      -0.087100
     40 C1           4.3010    -1.6820     1.3120 c          1 IXS       0.590100
     41 O3           3.6440    -1.3510     2.2880 o          1 IXS      -0.576100
     42 N9           5.6390    -1.7940     1.3150 ns         1 IXS      -0.509900
     43 C10          6.4980    -1.4630     2.4290 c3         1 IXS       0.100000
     44 C51          7.6330    -0.5180     2.0340 c3         1 IXS      -0.079700
     45 C52          7.1090     0.8130     1.5110 c3         1 IXS      -0.087600
     46 C53          8.5580    -0.3130     3.2280 c3         1 IXS      -0.087600
     47 H221        -7.4660     3.2430     2.0790 h1         1 IXS       0.103367
     48 H222        -6.2240     3.4490     0.8150 h1         1 IXS       0.103367
     49 H223        -7.6790     2.4700     0.4910 h1         1 IXS       0.103367
     50 H291        -6.3630    -1.2020     0.1960 h1         1 IXS       0.049367
     51 H292        -7.1810     0.2040    -0.5020 h1         1 IXS       0.049367
     52 H293        -5.7050    -0.3900    -1.2360 h1         1 IXS       0.049367
     53 H20         -3.6870     2.7060     0.3500 ha         1 IXS       0.135000
     54 HN13         0.2110     2.0440    -1.2030 hn         1 IXS       0.312500
     55 H12          0.9700     4.5380     0.1390 h1         1 IXS       0.084700
     56 H501         0.3370     4.4090    -2.8500 hc         1 IXS       0.045700
     57 H502        -0.5560     5.3100    -1.6240 hc         1 IXS       0.045700
     58 H503         1.1010     5.7680    -2.0210 hc         1 IXS       0.045700
     59 H6           1.9110     2.7600    -3.0650 ha         1 IXS       0.120500
     60 H7           4.1930     1.9610    -3.5030 ha         1 IXS       0.134000
     61 H4           3.1260     4.1060     0.8170 ha         1 IXS       0.120500
     62 H3           5.4230     3.3120     0.3690 ha         1 IXS       0.134000
     63 H18         -3.9750    -1.5630     0.5510 ha         1 IXS       0.141000
     64 H16         -0.1520     0.2970     0.1270 ha         1 IXS       0.133000
     65 HN35        -0.2720    -1.5560    -1.2860 hn         1 IXS       0.307500
     66 H36          0.2010    -4.1230     0.0780 h1         1 IXS       0.089700
     67 H561        -0.0150    -3.7440    -2.9380 hc         1 IXS       0.048200
     68 H562         0.3160    -5.2440    -2.0890 hc         1 IXS       0.048200
     69 H65         -1.4800    -6.3980    -0.8270 ha         1 IXS       0.106500
     70 H64         -3.8970    -6.7410    -0.5100 ha         1 IXS       0.110500
     71 H63         -5.5150    -5.0800    -1.3770 ha         1 IXS       0.112000
     72 H62         -4.6890    -3.0890    -2.5980 ha         1 IXS       0.110500
     73 H61         -2.2750    -2.7620    -2.9370 ha         1 IXS       0.106500
     74 H371         2.3330    -4.1020    -1.2720 h1         1 IXS       0.030700
     75 H372         1.8880    -2.5190    -1.8790 h1         1 IXS       0.030700
     76 HN38         2.3440    -3.1670     0.9270 hn         1 IXS       0.434000
     77 H39          4.3110    -2.6510    -0.6010 h1         1 IXS       0.019700
     78 H81          4.5940    -0.2550    -1.0030 hc         1 IXS       0.044033
     79 H82          3.1160    -0.7750    -1.7850 hc         1 IXS       0.044033
     80 H83          3.0300     0.1060    -0.2590 hc         1 IXS       0.044033
     81 HN9          6.0850    -2.1370     0.4790 hn         1 IXS       0.306500
     82 H101         5.8860    -1.0020     3.2050 h1         1 IXS       0.057700
     83 H102         6.9170    -2.3800     2.8540 h1         1 IXS       0.057700
     84 H51          8.2120    -1.0010     1.2360 hc         1 IXS       0.041700
     85 H521         7.9320     1.4640     1.2130 hc         1 IXS       0.036700
     86 H522         6.4630     0.6870     0.6430 hc         1 IXS       0.036700
     87 H523         6.5350     1.3360     2.2810 hc         1 IXS       0.036700
     88 H531         8.9580    -1.2600     3.5950 hc         1 IXS       0.036700
     89 H532         9.4030     0.3230     2.9620 hc         1 IXS       0.036700
     90 H533         8.0280     0.1690     4.0520 hc         1 IXS       0.036700
@<TRIPOS>BOND
     1     1     2 2   
     2     2     3 2   
     3     2     4 1   
     4     2     5 1   
     5     4    47 1   
     6     4    48 1   
     7     4    49 1   
     8     5     6 1   
     9     5     7 1   
    10     6    50 1   
    11     6    51 1   
    12     6    52 1   
    13     7     8 ar  
    14     7    22 ar  
    15     8     9 ar  
    16     8    53 1   
    17     9    10 1   
    18     9    24 ar  
    19    10    11 2   
    20    10    12 1   
    21    12    13 1   
    22    12    54 1   
    23    13    14 1   
    24    13    15 1   
    25    13    55 1   
    26    14    56 1   
    27    14    57 1   
    28    14    58 1   
    29    15    16 ar  
    30    15    18 ar  
    31    16    17 ar  
    32    16    59 1   
    33    17    20 ar  
    34    17    60 1   
    35    18    19 ar  
    36    18    61 1   
    37    19    20 ar  
    38    19    62 1   
    39    20    21 1   
    40    22    23 ar  
    41    22    63 1   
    42    23    24 ar  
    43    23    25 1   
    44    24    64 1   
    45    25    26 2   
    46    25    27 1   
    47    27    28 1   
    48    27    65 1   
    49    28    29 1   
    50    28    36 1   
    51    28    66 1   
    52    29    30 1   
    53    29    67 1   
    54    29    68 1   
    55    30    31 ar  
    56    30    35 ar  
    57    31    32 ar  
    58    31    69 1   
    59    32    33 ar  
    60    32    70 1   
    61    33    34 ar  
    62    33    71 1   
    63    34    35 ar  
    64    34    72 1   
    65    35    73 1   
    66    36    37 1   
    67    36    74 1   
    68    36    75 1   
    69    37    38 1   
    70    37    76 1   
    71    38    39 1   
    72    38    40 1   
    73    38    77 1   
    74    39    78 1   
    75    39    79 1   
    76    39    80 1   
    77    40    41 2   
    78    40    42 1   
    79    42    43 1   
    80    42    81 1   
    81    43    44 1   
    82    43    82 1   
    83    43    83 1   
    84    44    45 1   
    85    44    46 1   
    86    44    84 1   
    87    45    85 1   
    88    45    86 1   
    89    45    87 1   
    90    46    88 1   
    91    46    89 1   
    92    46    90 1   
@<TRIPOS>SUBSTRUCTURE
     1 IXS         1 TEMP              0 ****  ****    0 ROOT
