@<TRIPOS>MOLECULE
IXS
   90    92     1     0     0
SMALL
No Charge or Current Charge


@<TRIPOS>ATOM
      1 O2          -4.4240     2.4420     3.4150 o          1 IXS      -0.526500
      2 S1          -5.6380     1.8980     2.8000 s6         1 IXS       1.211100
      3 O1          -6.7250     1.3980     3.6470 o          1 IXS      -0.526500
      4 C22         -6.3120     3.1160     1.6790 c3         1 IXS      -0.354100
      5 N24         -5.1460     0.5810     1.7810 nh         1 IXS      -0.791300
      6 C29         -6.1900    -0.4260     1.4850 c3         1 IXS       0.206100
      7 C19         -3.8790     0.5350     1.1280 ca         1 IXS       0.260000
      8 C20         -3.1560     1.6880     0.7470 ca         1 IXS      -0.035000
      9 C15         -1.9030     1.6030     0.0980 ca         1 IXS      -0.144600
     10 C14         -1.1780     2.8850    -0.2650 c          1 IXS       0.614700
     11 O5          -1.6570     3.9870    -0.0340 o          1 IXS      -0.590100
     12 N13          0.0570     2.7580    -0.8660 ns         1 IXS      -0.501900
     13 C12          0.9010     3.8760    -1.2850 c3         1 IXS       0.162000
     14 C50          0.3740     4.5150    -2.5890 c3         1 IXS      -0.110100
     15 C5           2.3610     3.4250    -1.3630 ca         1 IXS      -0.113300
     16 C6           2.9030     2.8470    -2.5340 ca         1 IXS      -0.071500
     17 C7           4.2540     2.4580    -2.5740 ca         1 IXS      -0.153500
     18 C4           3.1890     3.5830    -0.2310 ca         1 IXS      -0.071500
     19 C3           4.5380     3.1880    -0.2730 ca         1 IXS      -0.153500
     20 C2           5.0670     2.6320    -1.4450 ca         1 IXS       0.171000
     21 F1           6.3640     2.2560    -1.4870 f          1 IXS      -0.181000
     22 C18         -3.3040    -0.7210     0.8500 ca         1 IXS      -0.059000
     23 C17         -2.0620    -0.8470     0.1930 ca         1 IXS      -0.142600
     24 C16         -1.3650     0.3250    -0.1810 ca         1 IXS      -0.069000
     25 C34         -1.5040    -2.2320    -0.0660 c          1 IXS       0.623700
     26 O4          -1.9420    -3.2240     0.5000 o          1 IXS      -0.584100
     27 N35         -0.4510    -2.3050    -0.9510 ns         1 IXS      -0.482900
     28 C36          0.3340    -3.5130    -1.2460 c3         1 IXS       0.112700
     29 C56         -0.1730    -4.2230    -2.5270 c3         1 IXS      -0.049100
     30 C58         -1.6500    -4.6000    -2.4770 ca         1 IXS      -0.077300
     31 C65         -2.0570    -5.7890    -1.8410 ca         1 IXS      -0.098500
     32 C64         -3.4190    -6.1350    -1.7890 ca         1 IXS      -0.107500
     33 C63         -4.3810    -5.2930    -2.3710 ca         1 IXS      -0.105000
     34 C62         -3.9820    -4.1060    -3.0070 ca         1 IXS      -0.107500
     35 C61         -2.6200    -3.7610    -3.0610 ca         1 IXS      -0.098500
     36 C37          1.8440    -3.1590    -1.3470 c3         1 IXS       0.148800
     37 N38          2.2970    -2.3490    -0.1870 n7         1 IXS      -0.848400
     38 C39          3.7030    -1.8320    -0.2220 c3         1 IXS       0.103500
     39 C8           3.8540    -0.7490    -1.3150 c3         1 IXS      -0.087100
     40 C1           4.1910    -1.2580     1.1580 c          1 IXS       0.590100
     41 O3           3.5750    -0.4060     1.7880 o          1 IXS      -0.576100
     42 N9           5.3680    -1.8070     1.6310 ns         1 IXS      -0.509900
     43 C10          6.0590    -1.3870     2.8550 c3         1 IXS       0.100000
     44 C51          7.2130    -0.3880     2.5840 c3         1 IXS      -0.079700
     45 C52          6.7350     0.9170     1.9010 c3         1 IXS      -0.087600
     46 C53          7.9930    -0.0810     3.8810 c3         1 IXS      -0.087600
     47 H221        -6.6480     3.9630     2.2860 h1         1 IXS       0.103367
     48 H222        -5.5380     3.4240     0.9730 h1         1 IXS       0.103367
     49 H223        -7.1530     2.6480     1.1590 h1         1 IXS       0.103367
     50 H291        -6.2030    -1.2050     2.2590 h1         1 IXS       0.049367
     51 H292        -7.1850     0.0340     1.4300 h1         1 IXS       0.049367
     52 H293        -6.0060    -0.9040     0.5140 h1         1 IXS       0.049367
     53 H20         -3.5600     2.6700     0.9510 ha         1 IXS       0.135000
     54 HN13         0.4090     1.8230    -1.0110 hn         1 IXS       0.312500
     55 H12          0.8390     4.6490    -0.5050 h1         1 IXS       0.084700
     56 H501         0.2710     3.7710    -3.3870 hc         1 IXS       0.045700
     57 H502        -0.6110     4.9680    -2.4250 hc         1 IXS       0.045700
     58 H503         1.0540     5.3030    -2.9310 hc         1 IXS       0.045700
     59 H6           2.2870     2.6940    -3.4160 ha         1 IXS       0.120500
     60 H7           4.6700     2.0180    -3.4770 ha         1 IXS       0.134000
     61 H4           2.7880     4.0150     0.6830 ha         1 IXS       0.120500
     62 H3           5.1720     3.3160     0.6000 ha         1 IXS       0.134000
     63 H18         -3.8290    -1.6210     1.1570 ha         1 IXS       0.141000
     64 H16         -0.3960     0.2410    -0.6630 ha         1 IXS       0.133000
     65 HN35        -0.1280    -1.4350    -1.3480 hn         1 IXS       0.307500
     66 H36          0.2180    -4.2110    -0.4060 h1         1 IXS       0.089700
     67 H561         0.0160    -3.5740    -3.3910 hc         1 IXS       0.048200
     68 H562         0.4310    -5.1240    -2.6920 hc         1 IXS       0.048200
     69 H65         -1.3180    -6.4440    -1.3840 ha         1 IXS       0.106500
     70 H64         -3.7270    -7.0540    -1.2950 ha         1 IXS       0.110500
     71 H63         -5.4350    -5.5610    -2.3290 ha         1 IXS       0.112000
     72 H62         -4.7260    -3.4530    -3.4570 ha         1 IXS       0.110500
     73 H61         -2.3200    -2.8380    -3.5520 ha         1 IXS       0.106500
     74 H371         2.4280    -4.0870    -1.4180 h1         1 IXS       0.030700
     75 H372         1.9970    -2.6030    -2.2810 h1         1 IXS       0.030700
     76 HN38         2.1770    -2.9170     0.6630 hn         1 IXS       0.434000
     77 H39          4.3790    -2.6600    -0.4750 h1         1 IXS       0.019700
     78 H81          4.8710    -0.3420    -1.3040 hc         1 IXS       0.044033
     79 H82          3.6740    -1.1570    -2.3160 hc         1 IXS       0.044033
     80 H83          3.1520     0.0760    -1.1420 hc         1 IXS       0.044033
     81 HN9          5.8020    -2.5180     1.0540 hn         1 IXS       0.306500
     82 H101         5.3380    -0.9380     3.5520 h1         1 IXS       0.057700
     83 H102         6.4660    -2.2850     3.3390 h1         1 IXS       0.057700
     84 H51          7.9140    -0.8770     1.8960 hc         1 IXS       0.041700
     85 H521         7.5770     1.6020     1.7430 hc         1 IXS       0.036700
     86 H522         6.2900     0.7090     0.9220 hc         1 IXS       0.036700
     87 H523         5.9880     1.4300     2.5180 hc         1 IXS       0.036700
     88 H531         8.3780    -1.0050     4.3300 hc         1 IXS       0.036700
     89 H532         8.8470     0.5750     3.6750 hc         1 IXS       0.036700
     90 H533         7.3480     0.4150     4.6170 hc         1 IXS       0.036700
@<TRIPOS>BOND
     1     1     2 2   
     2     2     3 2   
     3     2     4 1   
     4     2     5 1   
     5     4    47 1   
     6     4    48 1   
     7     4    49 1   
     8     5     6 1   
     9     5     7 1   
    10     6    50 1   
    11     6    51 1   
    12     6    52 1   
    13     7     8 ar  
    14     7    22 ar  
    15     8     9 ar  
    16     8    53 1   
    17     9    10 1   
    18     9    24 ar  
    19    10    11 2   
    20    10    12 1   
    21    12    13 1   
    22    12    54 1   
    23    13    14 1   
    24    13    15 1   
    25    13    55 1   
    26    14    56 1   
    27    14    57 1   
    28    14    58 1   
    29    15    16 ar  
    30    15    18 ar  
    31    16    17 ar  
    32    16    59 1   
    33    17    20 ar  
    34    17    60 1   
    35    18    19 ar  
    36    18    61 1   
    37    19    20 ar  
    38    19    62 1   
    39    20    21 1   
    40    22    23 ar  
    41    22    63 1   
    42    23    24 ar  
    43    23    25 1   
    44    24    64 1   
    45    25    26 2   
    46    25    27 1   
    47    27    28 1   
    48    27    65 1   
    49    28    29 1   
    50    28    36 1   
    51    28    66 1   
    52    29    30 1   
    53    29    67 1   
    54    29    68 1   
    55    30    31 ar  
    56    30    35 ar  
    57    31    32 ar  
    58    31    69 1   
    59    32    33 ar  
    60    32    70 1   
    61    33    34 ar  
    62    33    71 1   
    63    34    35 ar  
    64    34    72 1   
    65    35    73 1   
    66    36    37 1   
    67    36    74 1   
    68    36    75 1   
    69    37    38 1   
    70    37    76 1   
    71    38    39 1   
    72    38    40 1   
    73    38    77 1   
    74    39    78 1   
    75    39    79 1   
    76    39    80 1   
    77    40    41 2   
    78    40    42 1   
    79    42    43 1   
    80    42    81 1   
    81    43    44 1   
    82    43    82 1   
    83    43    83 1   
    84    44    45 1   
    85    44    46 1   
    86    44    84 1   
    87    45    85 1   
    88    45    86 1   
    89    45    87 1   
    90    46    88 1   
    91    46    89 1   
    92    46    90 1   
@<TRIPOS>SUBSTRUCTURE
     1 IXS         1 TEMP              0 ****  ****    0 ROOT
