@<TRIPOS>MOLECULE
IXT
   54    56     1     0     0
SMALL
abcg2


@<TRIPOS>ATOM
      1 C4          99.0580    -7.2250    12.8360 ca         1 IXT      -0.121000
      2 C5          96.9340    -6.2180    12.2860 ca         1 IXT      -0.132300
      3 C6          96.3470    -7.4760    12.3430 ca         1 IXT      -0.072000
      4 C8          96.1200    -4.9860    11.9470 c3         1 IXT       0.155600
      5 C15         93.8910    -5.6170    15.2180 ce         1 IXT       0.383800
      6 C17         92.7060    -7.4790    14.0750 ca         1 IXT      -0.217000
      7 C20         91.3750    -8.0770    16.4640 ca         1 IXT       0.199600
      8 C21         92.2840    -7.0220    16.4130 ca         1 IXT      -0.217000
      9 C26         90.8980    -7.6930    18.7550 c3         1 IXT       0.147900
     10 C28        100.8380   -11.0730    13.4240 cc         1 IXT      -0.225000
     11 C1          98.4560    -8.4770    12.8920 ca         1 IXT       0.030800
     12 C2          97.0950    -8.6040    12.6410 ca         1 IXT      -0.121000
     13 C3          98.3010    -6.1090    12.5230 ca         1 IXT      -0.072000
     14 N7          99.2210    -9.6180    13.1980 na         1 IXT       0.221000
     15 C9          96.1960    -4.0150    13.1250 c          1 IXT       0.631100
     16 O10         96.6270    -4.2980    10.8420 os         1 IXT      -0.430000
     17 C11         96.5190    -4.9900     9.6100 c3         1 IXT       0.155600
     18 O12         96.9370    -3.0560    13.1420 o          1 IXT      -0.547100
     19 N13         95.4140    -4.3150    14.1970 ns         1 IXT      -0.273900
     20 N14         94.5660    -5.3510    14.1750 n2         1 IXT      -0.441300
     21 C16         92.9440    -6.7300    15.2250 ca         1 IXT      -0.039900
     22 C18         91.8070    -8.5360    14.1130 ca         1 IXT       0.199600
     23 C19         91.1450    -8.8300    15.3110 ca         1 IXT      -0.100900
     24 O22         91.5170    -9.3080    13.0600 os         1 IXT      -0.320100
     25 BR23        89.9260   -10.2550    15.3640 br         1 IXT      -0.055100
     26 C25         92.1930    -9.0740    11.8380 c3         1 IXT       0.147900
     27 C27        100.5420    -9.8150    12.9690 cd         1 IXT      -0.160000
     28 C29         99.6130   -11.5620    13.9140 cc         1 IXT       0.244900
     29 N30         98.6480   -10.6780    13.7720 nd         1 IXT      -0.516800
     30 C31         95.0960    -5.1290     9.0990 c3         1 IXT      -0.128100
     31 H1         100.1120    -7.1060    13.0510 ha         1 IXT       0.133500
     32 H2          95.2900    -7.5850    12.1400 ha         1 IXT       0.126500
     33 H3          95.0770    -5.2870    11.7990 h1         1 IXT       0.071700
     34 H4          93.9870    -5.0380    16.1390 h4         1 IXT      -0.006200
     35 H5          93.2210    -7.2200    13.1610 ha         1 IXT       0.126500
     36 H6          92.4860    -6.4210    17.2900 ha         1 IXT       0.126500
     37 H7          90.2500    -8.1440    19.5010 h1         1 IXT       0.045200
     38 H8          91.9330    -7.7560    19.0990 h1         1 IXT       0.045200
     39 H9          90.6240    -6.6420    18.6370 h1         1 IXT       0.045200
     40 H10        101.7930   -11.5700    13.4000 ha         1 IXT       0.148000
     41 H11         96.6220    -9.5760    12.6690 ha         1 IXT       0.133500
     42 H12         98.7890    -5.1440    12.4810 ha         1 IXT       0.126500
     43 H13         97.1060    -4.4040     8.9020 h1         1 IXT       0.050700
     44 H14         96.9920    -5.9770     9.6750 h1         1 IXT       0.050700
     45 H15         95.4930    -3.7280    15.0240 hn         1 IXT       0.315500
     46 H16         91.8190    -9.8150    11.1370 h1         1 IXT       0.045200
     47 H17         91.9870    -8.0760    11.4420 h1         1 IXT       0.045200
     48 H18         93.2740    -9.1980    11.9420 h1         1 IXT       0.045200
     49 H19        101.1590    -9.0740    12.4880 h4         1 IXT       0.157000
     50 H20         99.4070   -12.5210    14.3670 h4         1 IXT       0.040100
     51 H21         95.1160    -5.5630     8.0990 hc         1 IXT       0.041367
     52 H22         94.4850    -5.7830     9.7220 hc         1 IXT       0.041367
     53 H23         94.6030    -4.1580     9.0340 hc         1 IXT       0.041367
     54 O24         90.6940    -8.4270    17.5600 os         1 IXT      -0.320100
@<TRIPOS>BOND
     1     1    11 ar  
     2     1    13 ar  
     3     1    31 1   
     4     2     3 ar  
     5     2     4 1   
     6     2    13 ar  
     7     3    12 ar  
     8     3    32 1   
     9     4    15 1   
    10     4    16 1   
    11     4    33 1   
    12     5    20 2   
    13     5    21 1   
    14     5    34 1   
    15     6    21 ar  
    16     6    22 ar  
    17     6    35 1   
    18     7     8 ar  
    19     7    23 ar  
    20     7    54 1   
    21     8    21 ar  
    22     8    36 1   
    23     9    37 1   
    24     9    38 1   
    25     9    39 1   
    26     9    54 1   
    27    10    27 2   
    28    10    28 1   
    29    10    40 1   
    30    11    12 ar  
    31    11    14 1   
    32    12    41 1   
    33    13    42 1   
    34    14    27 1   
    35    14    29 1   
    36    15    18 2   
    37    15    19 1   
    38    16    17 1   
    39    17    30 1   
    40    17    43 1   
    41    17    44 1   
    42    19    20 1   
    43    19    45 1   
    44    22    23 ar  
    45    22    24 1   
    46    23    25 1   
    47    24    26 1   
    48    26    46 1   
    49    26    47 1   
    50    26    48 1   
    51    27    49 1   
    52    28    29 2   
    53    28    50 1   
    54    30    51 1   
    55    30    52 1   
    56    30    53 1   
@<TRIPOS>SUBSTRUCTURE
     1 IXT         1 TEMP              0 ****  ****    0 ROOT
