@<TRIPOS>MOLECULE
IXT
   54    56     1     0     0
SMALL
No Charge or Current Charge


@<TRIPOS>ATOM
      1 C4          97.8210    -7.0560    14.0670 ca         1 IXT      -0.121000
      2 C5          96.4270    -5.9090    12.4230 ca         1 IXT      -0.132300
      3 C6          95.7290    -7.1130    12.1970 ca         1 IXT      -0.072000
      4 C8          96.0320    -4.6390    11.6550 c3         1 IXT       0.155600
      5 C15         94.0730    -5.3100    14.6420 ce         1 IXT       0.383800
      6 C17         92.6930    -7.1800    13.6090 ca         1 IXT      -0.217000
      7 C20         93.3070    -8.8690    15.7760 ca         1 IXT       0.199600
      8 C21         93.8020    -7.5480    15.7390 ca         1 IXT      -0.217000
      9 C26         94.4190    -9.3500    17.9310 c3         1 IXT       0.147900
     10 C28         98.7720   -11.0020    15.1850 cc         1 IXT      -0.225000
     11 C1          97.1220    -8.2600    13.8400 ca         1 IXT       0.030800
     12 C2          96.0720    -8.2780    12.9020 ca         1 IXT      -0.121000
     13 C3          97.4800    -5.8900    13.3590 ca         1 IXT      -0.072000
     14 N7          97.4610    -9.4260    14.5330 na         1 IXT       0.221000
     15 C9          95.8360    -3.4010    12.6000 c          1 IXT       0.631100
     16 O10         97.0420    -4.3780    10.6360 os         1 IXT      -0.430000
     17 C11         97.2200    -5.3690     9.5980 c3         1 IXT       0.155600
     18 O12         96.5740    -2.4200    12.5760 o          1 IXT      -0.547100
     19 N13         94.7620    -3.4260    13.4900 ns         1 IXT      -0.273900
     20 N14         93.8890    -4.4910    13.6480 n2         1 IXT      -0.441300
     21 C16         93.5000    -6.6940    14.6600 ca         1 IXT      -0.039900
     22 C18         92.2020    -8.5020    13.6310 ca         1 IXT       0.199600
     23 C19         92.5100    -9.3420    14.7170 ca         1 IXT      -0.100900
     24 O22         91.4220    -9.0120    12.6080 os         1 IXT      -0.320100
     25 Br23        91.8460   -11.1480    14.7510 br         1 IXT      -0.055100
     26 C25         91.0770    -8.2420    11.4440 c3         1 IXT       0.147900
     27 C27         98.7950    -9.8320    14.4850 cd         1 IXT      -0.160000
     28 C29         97.4390   -11.2260    15.5810 cc         1 IXT       0.244900
     29 N30         96.5990   -10.2880    15.1880 nd         1 IXT      -0.516800
     30 C31         95.9710    -5.4090     8.6920 c3         1 IXT      -0.128100
     31 H1          98.6300    -7.0230    14.7930 ha         1 IXT       0.133500
     32 H2          94.9130    -7.1470    11.4780 ha         1 IXT       0.126500
     33 H3          95.0520    -4.7960    11.1880 h1         1 IXT       0.071700
     34 H4          94.7350    -5.0460    15.4700 h4         1 IXT      -0.006200
     35 H5          92.4650    -6.5220    12.7760 ha         1 IXT       0.126500
     36 H6          94.4290    -7.1690    16.5410 ha         1 IXT       0.126500
     37 H7          94.5110   -10.1830    18.6380 h1         1 IXT       0.045200
     38 H8          95.4260    -9.0880    17.5820 h1         1 IXT       0.045200
     39 H9          93.9970    -8.4920    18.4700 h1         1 IXT       0.045200
     40 H10         99.6080   -11.6610    15.4000 ha         1 IXT       0.148000
     41 H11         95.5200    -9.1980    12.7220 ha         1 IXT       0.133500
     42 H12         98.0360    -4.9730    13.5420 ha         1 IXT       0.126500
     43 H13         98.0860    -5.0990     8.9810 h1         1 IXT       0.050700
     44 H14         97.4150    -6.3650    10.0170 h1         1 IXT       0.050700
     45 H15         94.6600    -2.5840    14.0490 hn         1 IXT       0.315500
     46 H16         90.4610    -8.8410    10.7620 h1         1 IXT       0.045200
     47 H17         90.5030    -7.3480    11.7220 h1         1 IXT       0.045200
     48 H18         91.9780    -7.9290    10.9010 h1         1 IXT       0.045200
     49 H19         99.5900    -9.2890    13.9870 h4         1 IXT       0.157000
     50 H20         97.0560   -12.0650    16.1470 h4         1 IXT       0.040100
     51 H21         96.1750    -6.0180     7.8040 hc         1 IXT       0.041367
     52 H22         95.1140    -5.8550     9.2090 hc         1 IXT       0.041367
     53 H23         95.7000    -4.4000     8.3590 hc         1 IXT       0.041367
     54 O24         93.5760    -9.7250    16.8280 os         1 IXT      -0.320100
@<TRIPOS>BOND
     1     1    11 ar  
     2     1    13 ar  
     3     1    31 1   
     4     2     3 ar  
     5     2     4 1   
     6     2    13 ar  
     7     3    12 ar  
     8     3    32 1   
     9     4    15 1   
    10     4    16 1   
    11     4    33 1   
    12     5    20 2   
    13     5    21 1   
    14     5    34 1   
    15     6    21 ar  
    16     6    22 ar  
    17     6    35 1   
    18     7     8 ar  
    19     7    23 ar  
    20     7    54 1   
    21     8    21 ar  
    22     8    36 1   
    23     9    37 1   
    24     9    38 1   
    25     9    39 1   
    26     9    54 1   
    27    10    27 2   
    28    10    28 1   
    29    10    40 1   
    30    11    12 ar  
    31    11    14 1   
    32    12    41 1   
    33    13    42 1   
    34    14    27 1   
    35    14    29 1   
    36    15    18 2   
    37    15    19 1   
    38    16    17 1   
    39    17    30 1   
    40    17    43 1   
    41    17    44 1   
    42    19    20 1   
    43    19    45 1   
    44    22    23 ar  
    45    22    24 1   
    46    23    25 1   
    47    24    26 1   
    48    26    46 1   
    49    26    47 1   
    50    26    48 1   
    51    27    49 1   
    52    28    29 2   
    53    28    50 1   
    54    30    51 1   
    55    30    52 1   
    56    30    53 1   
@<TRIPOS>SUBSTRUCTURE
     1 IXT         1 TEMP              0 ****  ****    0 ROOT
