@<TRIPOS>MOLECULE
IXV
   58    61     1     0     0
SMALL
abcg2


@<TRIPOS>ATOM
      1 O1           1.8390    -1.9430     0.0920 o          1 IXV      -0.571100
      2 C18          1.3240    -0.8510    -0.0580 c          1 IXV       0.604100
      3 C19          2.0820     0.4400    -0.2210 c3         1 IXV      -0.172400
      4 C20          3.5160     0.3580     0.2680 c3         1 IXV       0.216800
      5 N2           4.1430     1.6470     0.0850 nu         1 IXV      -0.948200
      6 C21          5.4570     1.8600     0.4470 ca         1 IXV       0.300000
      7 C23          5.9300     3.1750     0.5760 ca         1 IXV      -0.178000
      8 C25          7.2510     3.4240     0.9000 ca         1 IXV      -0.071000
      9 C26          8.1450     2.3770     1.1060 ca         1 IXV      -0.154000
     10 C24          7.6820     1.0760     0.9850 ca         1 IXV      -0.071000
     11 C22          6.3570     0.8090     0.6640 ca         1 IXV      -0.178000
     12 N1          -0.0250    -0.6980    -0.1180 ns         1 IXV      -0.387100
     13 C2          -0.9540    -1.7170    -0.0650 cc         1 IXV      -0.051400
     14 S           -0.5000    -3.3740     0.0710 ss         1 IXV       0.318000
     15 C3          -2.3130    -1.5650    -0.1810 cd         1 IXV      -0.240600
     16 C1          -3.0050    -2.8190    -0.1680 cd         1 IXV       0.015000
     17 C4          -4.4660    -2.9700    -0.2340 ca         1 IXV      -0.016000
     18 C6          -5.0350    -3.9980    -0.9860 ca         1 IXV      -0.090000
     19 C8          -6.4120    -4.1690    -1.0230 ca         1 IXV      -0.111000
     20 C9          -7.2410    -3.3110    -0.3130 ca         1 IXV      -0.105000
     21 C7          -6.6840    -2.2840     0.4380 ca         1 IXV      -0.111000
     22 C5          -5.3080    -2.1160     0.4780 ca         1 IXV      -0.090000
     23 C           -2.1440    -3.8640    -0.0280 cc         1 IXV      -0.289000
     24 C10         -2.9290    -0.2450    -0.4890 c          1 IXV       0.637700
     25 O           -3.5810    -0.0550    -1.5020 o          1 IXV      -0.573100
     26 N           -2.6440     0.7140     0.4170 ns         1 IXV      -0.527900
     27 C11         -2.8290     2.1360     0.1950 c3         1 IXV       0.145300
     28 C12         -1.5310     2.7750    -0.2350 ca         1 IXV      -0.124300
     29 C14         -0.7520     3.4900     0.6690 ca         1 IXV      -0.104000
     30 C16          0.4690     4.0300     0.2800 ca         1 IXV      -0.118000
     31 C17          0.9260     3.8560    -1.0190 ca         1 IXV      -0.110000
     32 C15          0.1570     3.1390    -1.9280 ca         1 IXV      -0.118000
     33 C13         -1.0630     2.6030    -1.5390 ca         1 IXV      -0.104000
     34 H1           2.0680     0.7100    -1.2820 hc         1 IXV       0.074700
     35 H2           1.5490     1.2410     0.3010 hc         1 IXV       0.074700
     36 H3           3.5420     0.0310     1.3150 h1         1 IXV       0.055200
     37 H4           4.0530    -0.3930    -0.3140 h1         1 IXV       0.055200
     38 H5           3.5360     2.4260     0.2910 hn         1 IXV       0.455000
     39 H6           5.2500     4.0040     0.4170 ha         1 IXV       0.111000
     40 H7           7.5850     4.4500     0.9940 ha         1 IXV       0.109500
     41 H8           9.1780     2.5760     1.3590 ha         1 IXV       0.114000
     42 H9           8.3570     0.2450     1.1460 ha         1 IXV       0.109500
     43 H10          6.0350    -0.2200     0.5840 ha         1 IXV       0.111000
     44 H11         -0.3840     0.2400    -0.2370 hn         1 IXV       0.336500
     45 H12         -4.3960    -4.6600    -1.5570 ha         1 IXV       0.112000
     46 H13         -6.8370    -4.9710    -1.6120 ha         1 IXV       0.111500
     47 H14         -8.3150    -3.4430    -0.3440 ha         1 IXV       0.111000
     48 H15         -7.3210    -1.6140     1.0010 ha         1 IXV       0.111500
     49 H16         -4.8880    -1.3260     1.0890 ha         1 IXV       0.112000
     50 H17         -2.3930    -4.9100     0.0680 h4         1 IXV       0.156000
     51 H18         -2.2150     0.4360     1.2860 hn         1 IXV       0.316500
     52 H19         -3.6020     2.2750    -0.5590 h1         1 IXV       0.068200
     53 H20         -3.1910     2.5870     1.1190 h1         1 IXV       0.068200
     54 H21         -1.1000     3.6290     1.6850 ha         1 IXV       0.123000
     55 H22          1.0620     4.5870     0.9940 ha         1 IXV       0.118000
     56 H23          1.8750     4.2770    -1.3230 ha         1 IXV       0.118000
     57 H24          0.5050     3.0010    -2.9440 ha         1 IXV       0.118000
     58 H25         -1.6590     2.0510    -2.2570 ha         1 IXV       0.123000
@<TRIPOS>BOND
     1     1     2 2   
     2     2     3 1   
     3     2    12 1   
     4     3     4 1   
     5     3    34 1   
     6     3    35 1   
     7     4     5 1   
     8     4    36 1   
     9     4    37 1   
    10     5     6 1   
    11     5    38 1   
    12     6     7 ar  
    13     6    11 ar  
    14     7     8 ar  
    15     7    39 1   
    16     8     9 ar  
    17     8    40 1   
    18     9    10 ar  
    19     9    41 1   
    20    10    11 ar  
    21    10    42 1   
    22    11    43 1   
    23    12    13 1   
    24    12    44 1   
    25    13    14 1   
    26    13    15 2   
    27    14    23 1   
    28    15    16 1   
    29    15    24 1   
    30    16    17 1   
    31    16    23 2   
    32    17    18 ar  
    33    17    22 ar  
    34    18    19 ar  
    35    18    45 1   
    36    19    20 ar  
    37    19    46 1   
    38    20    21 ar  
    39    20    47 1   
    40    21    22 ar  
    41    21    48 1   
    42    22    49 1   
    43    23    50 1   
    44    24    25 2   
    45    24    26 1   
    46    26    27 1   
    47    26    51 1   
    48    27    28 1   
    49    27    52 1   
    50    27    53 1   
    51    28    29 ar  
    52    28    33 ar  
    53    29    30 ar  
    54    29    54 1   
    55    30    31 ar  
    56    30    55 1   
    57    31    32 ar  
    58    31    56 1   
    59    32    33 ar  
    60    32    57 1   
    61    33    58 1   
@<TRIPOS>SUBSTRUCTURE
     1 IXV         1 TEMP              0 ****  ****    0 ROOT
