@<TRIPOS>MOLECULE
IXV
   58    61     1     0     0
SMALL
No Charge or Current Charge


@<TRIPOS>ATOM
      1 O1           1.9710    -2.7670    -0.8480 o          1 IXV      -0.571100
      2 C18          1.4820    -1.6780    -1.1150 c          1 IXV       0.604100
      3 C19          2.3290    -0.5280    -1.6520 c3         1 IXV      -0.172400
      4 C20          3.1370     0.1050    -0.5130 c3         1 IXV       0.216800
      5 N2           4.0100     1.1590    -1.0470 nu         1 IXV      -0.948200
      6 C21          4.7640     2.0670    -0.3020 ca         1 IXV       0.300000
      7 C23          5.2230     3.2400    -0.9220 ca         1 IXV      -0.178000
      8 C25          5.9730     4.1820    -0.1960 ca         1 IXV      -0.071000
      9 C26          6.2680     3.9480     1.1570 ca         1 IXV      -0.154000
     10 C24          5.8150     2.7740     1.7830 ca         1 IXV      -0.071000
     11 C22          5.0650     1.8350     1.0530 ca         1 IXV      -0.178000
     12 N1           0.1330    -1.3970    -0.9890 ns         1 IXV      -0.387100
     13 C2          -0.9180    -2.2600    -0.6510 cc         1 IXV      -0.051400
     14 S           -0.7900    -4.0200    -0.6490 ss         1 IXV       0.318000
     15 C3          -2.2330    -1.8420    -0.4480 cd         1 IXV      -0.240600
     16 C1          -3.1480    -2.9610    -0.3500 cd         1 IXV       0.015000
     17 C4          -4.6180    -2.9030    -0.1480 ca         1 IXV      -0.016000
     18 C6          -5.4570    -3.8760    -0.7400 ca         1 IXV      -0.090000
     19 C8          -6.8460    -3.8560    -0.5270 ca         1 IXV      -0.111000
     20 C9          -7.4190    -2.8780     0.3000 ca         1 IXV      -0.105000
     21 C7          -6.5970    -1.9250     0.9210 ca         1 IXV      -0.111000
     22 C5          -5.2080    -1.9430     0.7050 ca         1 IXV      -0.090000
     23 C           -2.5280    -4.1670    -0.5750 cc         1 IXV      -0.289000
     24 C10         -2.6330    -0.3950    -0.4430 c          1 IXV       0.637700
     25 O           -3.7180     0.0300    -0.8110 o          1 IXV      -0.573100
     26 N           -1.6670     0.4510     0.0440 ns         1 IXV      -0.527900
     27 C11         -1.7930     1.9010     0.1340 c3         1 IXV       0.145300
     28 C12         -0.4470     2.5300     0.4550 ca         1 IXV      -0.124300
     29 C14          0.0300     2.5430     1.7800 ca         1 IXV      -0.104000
     30 C16          1.2770     3.1200     2.0790 ca         1 IXV      -0.118000
     31 C17          2.0520     3.6890     1.0550 ca         1 IXV      -0.110000
     32 C15          1.5840     3.6730    -0.2690 ca         1 IXV      -0.118000
     33 C13          0.3390     3.0930    -0.5700 ca         1 IXV      -0.104000
     34 H1           3.0270    -0.9260    -2.3970 hc         1 IXV       0.074700
     35 H2           1.6910     0.2440    -2.0980 hc         1 IXV       0.074700
     36 H3           2.4430     0.5300     0.2280 h1         1 IXV       0.055200
     37 H4           3.7390    -0.6660    -0.0110 h1         1 IXV       0.055200
     38 H5           3.8700     1.4150    -2.0240 hn         1 IXV       0.455000
     39 H6           4.9950     3.4270    -1.9680 ha         1 IXV       0.111000
     40 H7           6.3230     5.0900    -0.6810 ha         1 IXV       0.109500
     41 H8           6.8470     4.6750     1.7210 ha         1 IXV       0.114000
     42 H9           6.0440     2.5920     2.8310 ha         1 IXV       0.109500
     43 H10          4.7210     0.9320     1.5470 ha         1 IXV       0.111000
     44 H11         -0.1040    -0.4410    -1.2300 hn         1 IXV       0.336500
     45 H12         -5.0390    -4.6390    -1.3910 ha         1 IXV       0.112000
     46 H13         -7.4790    -4.6020    -1.0030 ha         1 IXV       0.111500
     47 H14         -8.4930    -2.8640     0.4670 ha         1 IXV       0.111000
     48 H15         -7.0330    -1.1780     1.5800 ha         1 IXV       0.111500
     49 H16         -4.5880    -1.2270     1.2350 ha         1 IXV       0.112000
     50 H17         -2.9560    -5.1600    -0.5980 h4         1 IXV       0.156000
     51 H18         -0.8590     0.0120     0.4670 hn         1 IXV       0.316500
     52 H19         -2.1740     2.2930    -0.8190 h1         1 IXV       0.068200
     53 H20         -2.5200     2.1500     0.9190 h1         1 IXV       0.068200
     54 H21         -0.5650     2.1060     2.5800 ha         1 IXV       0.123000
     55 H22          1.6410     3.1280     3.1040 ha         1 IXV       0.118000
     56 H23          3.0160     4.1360     1.2860 ha         1 IXV       0.118000
     57 H24          2.1880     4.1060    -1.0630 ha         1 IXV       0.118000
     58 H25         -0.0140     3.0830    -1.5990 ha         1 IXV       0.123000
@<TRIPOS>BOND
     1     1     2 2   
     2     2     3 1   
     3     2    12 1   
     4     3     4 1   
     5     3    34 1   
     6     3    35 1   
     7     4     5 1   
     8     4    36 1   
     9     4    37 1   
    10     5     6 1   
    11     5    38 1   
    12     6     7 ar  
    13     6    11 ar  
    14     7     8 ar  
    15     7    39 1   
    16     8     9 ar  
    17     8    40 1   
    18     9    10 ar  
    19     9    41 1   
    20    10    11 ar  
    21    10    42 1   
    22    11    43 1   
    23    12    13 1   
    24    12    44 1   
    25    13    14 1   
    26    13    15 2   
    27    14    23 1   
    28    15    16 1   
    29    15    24 1   
    30    16    17 1   
    31    16    23 2   
    32    17    18 ar  
    33    17    22 ar  
    34    18    19 ar  
    35    18    45 1   
    36    19    20 ar  
    37    19    46 1   
    38    20    21 ar  
    39    20    47 1   
    40    21    22 ar  
    41    21    48 1   
    42    22    49 1   
    43    23    50 1   
    44    24    25 2   
    45    24    26 1   
    46    26    27 1   
    47    26    51 1   
    48    27    28 1   
    49    27    52 1   
    50    27    53 1   
    51    28    29 ar  
    52    28    33 ar  
    53    29    30 ar  
    54    29    54 1   
    55    30    31 ar  
    56    30    55 1   
    57    31    32 ar  
    58    31    56 1   
    59    32    33 ar  
    60    32    57 1   
    61    33    58 1   
@<TRIPOS>SUBSTRUCTURE
     1 IXV         1 TEMP              0 ****  ****    0 ROOT
