@<TRIPOS>MOLECULE
IXW
   19    19     1     0     0
SMALL
No Charge or Current Charge


@<TRIPOS>ATOM
      1 O2          -0.5680    -1.5250    -1.3880 o          1 IXW      -0.474000
      2 C3          -0.4280    -0.4000    -0.9290 c          1 IXW       0.597100
      3 O1          -1.4010     0.2850    -0.2460 os         1 IXW      -0.457100
      4 C2          -2.6580    -0.3740    -0.0200 c3         1 IXW       0.168600
      5 C1          -3.5550     0.5990     0.7610 c3         1 IXW      -0.097100
      6 C4           0.8400     0.4310    -1.1040 c3         1 IXW      -0.135400
      7 C5           1.9620    -0.1310    -0.2430 cx         1 IXW       0.093300
      8 O3           1.9890     0.3000     1.1360 op         1 IXW      -0.419000
      9 C6           3.0530     0.7650     0.2730 cx         1 IXW       0.071600
     10 H1          -3.1420    -0.6350    -0.9710 h1         1 IXW       0.049200
     11 H2          -2.5190    -1.2940     0.5640 h1         1 IXW       0.049200
     12 H3          -4.5300     0.1390     0.9590 hc         1 IXW       0.046700
     13 H4          -3.0960     0.8610     1.7220 hc         1 IXW       0.046700
     14 H5          -3.7190     1.5190     0.1870 hc         1 IXW       0.046700
     15 H6           1.1450     0.3880    -2.1560 hc         1 IXW       0.081700
     16 H7           0.6380     1.4700    -0.8190 hc         1 IXW       0.081700
     17 H8           2.1960    -1.1840    -0.4080 h1         1 IXW       0.097700
     18 H9           4.0350     0.3390     0.4750 h1         1 IXW       0.076200
     19 H10          3.0280     1.8280     0.0350 h1         1 IXW       0.076200
@<TRIPOS>BOND
     1     1     2 2   
     2     2     3 1   
     3     2     6 1   
     4     3     4 1   
     5     4     5 1   
     6     4    10 1   
     7     4    11 1   
     8     5    12 1   
     9     5    13 1   
    10     5    14 1   
    11     6     7 1   
    12     6    15 1   
    13     6    16 1   
    14     7     8 1   
    15     7     9 1   
    16     7    17 1   
    17     8     9 1   
    18     9    18 1   
    19     9    19 1   
@<TRIPOS>SUBSTRUCTURE
     1 IXW         1 TEMP              0 ****  ****    0 ROOT
