@<TRIPOS>MOLECULE
IXW
   19    19     1     0     0
SMALL
bcc


@<TRIPOS>ATOM
      1 O2          -0.2650    -1.4780    -0.0440 o          1 IXW      -0.523000
      2 C3          -0.3680    -0.2830    -0.1590 c          1 IXW       0.646100
      3 O1          -1.5170     0.3710    -0.0780 os         1 IXW      -0.433900
      4 C2          -2.7160    -0.3870     0.1550 c3         1 IXW       0.145400
      5 C1          -3.8760     0.5790     0.1480 c3         1 IXW      -0.097100
      6 C4           0.7820     0.6580    -0.4100 c3         1 IXW      -0.135400
      7 C5           2.0820    -0.0670    -0.5920 cx         1 IXW       0.070100
      8 O3           2.7130    -0.5540     0.5780 op         1 IXW      -0.372600
      9 C6           3.3340     0.5130    -0.1220 cx         1 IXW       0.048400
     10 H1          -2.8320    -1.1420    -0.6240 h1         1 IXW       0.049200
     11 H2          -2.6430    -0.9030     1.1150 h1         1 IXW       0.049200
     12 H3          -4.8010     0.0280     0.3160 hc         1 IXW       0.046700
     13 H4          -3.7830     1.3250     0.9370 hc         1 IXW       0.046700
     14 H5          -3.9640     1.0910    -0.8100 hc         1 IXW       0.046700
     15 H6           0.5680     1.2520    -1.3030 hc         1 IXW       0.081700
     16 H7           0.8420     1.3700     0.4180 hc         1 IXW       0.081700
     17 H8           2.1230    -0.7420    -1.4440 h1         1 IXW       0.097700
     18 H9           4.2630     0.2720    -0.6330 h1         1 IXW       0.076200
     19 H10          3.3260     1.4780     0.3790 h1         1 IXW       0.076200
@<TRIPOS>BOND
     1     1     2 2   
     2     2     3 1   
     3     2     6 1   
     4     3     4 1   
     5     4     5 1   
     6     4    10 1   
     7     4    11 1   
     8     5    12 1   
     9     5    13 1   
    10     5    14 1   
    11     6     7 1   
    12     6    15 1   
    13     6    16 1   
    14     7     8 1   
    15     7     9 1   
    16     7    17 1   
    17     8     9 1   
    18     9    18 1   
    19     9    19 1   
@<TRIPOS>SUBSTRUCTURE
     1 IXW         1 TEMP              0 ****  ****    0 ROOT
