@<TRIPOS>MOLECULE
IXX
   45    47     1     0     0
SMALL
bcc


@<TRIPOS>ATOM
      1 C11         -1.2220     1.2290    -0.3630 ca         1 IXX       0.183100
      2 C10         -1.2280     2.3080    -1.2620 ca         1 IXX      -0.155500
      3 C9          -1.9600     3.4560    -1.0340 ca         1 IXX      -0.115000
      4 C8          -2.7480     3.5530     0.1050 ca         1 IXX      -0.143500
      5 C7          -2.7610     2.4920     0.9910 ca         1 IXX      -0.115000
      6 C2          -1.4510    -3.3650    -1.4670 ca         1 IXX      -0.115000
      7 C6          -2.1130     0.2990     1.9010 c3         1 IXX      -0.023100
      8 C5          -1.0470    -0.7880     1.9360 c3         1 IXX      -0.023100
      9 N1          -0.4460     0.1100    -0.7020 nh         1 IXX      -0.621400
     10 C3          -1.7470    -3.8500    -0.2000 ca         1 IXX      -0.143500
     11 N2           4.3960     0.4010     0.3780 n3         1 IXX      -0.713600
     12 C4          -1.6150    -3.0170     0.9010 ca         1 IXX      -0.115000
     13 C1          -1.0370    -2.0510    -1.6220 ca         1 IXX      -0.155500
     14 C12         -2.0060     1.3300     0.8010 ca         1 IXX      -0.101800
     15 C13         -1.1770    -1.7030     0.7620 ca         1 IXX      -0.101800
     16 C14         -0.9010    -1.2120    -0.5150 ca         1 IXX       0.183100
     17 C15          0.9150     0.2650    -1.1920 c3         1 IXX       0.245800
     18 C16          1.9580     0.2060    -0.0800 c3         1 IXX      -0.109400
     19 C17          3.3700     0.2950    -0.6430 c3         1 IXX       0.169800
     20 C18          4.4930    -0.7860     1.2000 c3         1 IXX       0.150600
     21 C19          5.6790     0.7230    -0.2080 c3         1 IXX       0.150600
     22 H10         -0.6560     2.2360    -2.1780 ha         1 IXX       0.132000
     23 H9          -1.9300     4.2620    -1.7560 ha         1 IXX       0.130000
     24 H8          -3.3380     4.4390     0.3010 ha         1 IXX       0.131000
     25 H7          -3.3640     2.5630     1.8900 ha         1 IXX       0.126500
     26 H2          -1.5540    -4.0020    -2.3350 ha         1 IXX       0.130000
     27 H61         -3.0950    -0.1830     1.8490 hc         1 IXX       0.049450
     28 H51         -0.0520    -0.3360     1.9680 hc         1 IXX       0.049450
     29 H3          -2.0790    -4.8720    -0.0700 ha         1 IXX       0.131000
     30 H4          -1.8420    -3.3940     1.8920 ha         1 IXX       0.126500
     31 H1          -0.8210    -1.6640    -2.6110 ha         1 IXX       0.132000
     32 H151         1.1140    -0.5200    -1.9250 h1         1 IXX       0.044200
     33 H152         1.0150     1.2060    -1.7330 h1         1 IXX       0.044200
     34 H161         1.7940     1.0280     0.6220 hc         1 IXX       0.055700
     35 H162         1.8260    -0.7250     0.4780 hc         1 IXX       0.055700
     36 H171         3.4380     1.1870    -1.2740 h1         1 IXX       0.027200
     37 H172         3.5460    -0.5670    -1.3120 h1         1 IXX       0.027200
     38 H181         5.2690    -0.6480     1.9540 h1         1 IXX       0.029700
     39 H182         3.5580    -0.9740     1.7280 h1         1 IXX       0.029700
     40 H183         4.7430    -1.6930     0.6260 h1         1 IXX       0.029700
     41 H191         6.0590    -0.0560    -0.8890 h1         1 IXX       0.029700
     42 H192         5.6120     1.6530    -0.7740 h1         1 IXX       0.029700
     43 H193         6.4230     0.8660     0.5770 h1         1 IXX       0.029700
     44 H52         -1.1600    -1.3570     2.8610 hc         1 IXX       0.049450
     45 H62         -2.1010     0.8330     2.8540 hc         1 IXX       0.049450
@<TRIPOS>BOND
     1     1     2 ar  
     2     1     9 1   
     3     1    14 ar  
     4     2     3 ar  
     5     2    22 1   
     6     3     4 ar  
     7     3    23 1   
     8     4     5 ar  
     9     4    24 1   
    10     5    14 ar  
    11     5    25 1   
    12     6    10 ar  
    13     6    13 ar  
    14     6    26 1   
    15     7     8 1   
    16     7    14 1   
    17     7    27 1   
    18     7    45 1   
    19     8    15 1   
    20     8    28 1   
    21     8    44 1   
    22     9    16 1   
    23     9    17 1   
    24    10    12 ar  
    25    10    29 1   
    26    11    19 1   
    27    11    20 1   
    28    11    21 1   
    29    12    15 ar  
    30    12    30 1   
    31    13    16 ar  
    32    13    31 1   
    33    15    16 ar  
    34    17    18 1   
    35    17    32 1   
    36    17    33 1   
    37    18    19 1   
    38    18    34 1   
    39    18    35 1   
    40    19    36 1   
    41    19    37 1   
    42    20    38 1   
    43    20    39 1   
    44    20    40 1   
    45    21    41 1   
    46    21    42 1   
    47    21    43 1   
@<TRIPOS>SUBSTRUCTURE
     1 IXX         1 TEMP              0 ****  ****    0 ROOT
