@<TRIPOS>MOLECULE
IXX
   45    47     1     0     0
SMALL
No Charge or Current Charge


@<TRIPOS>ATOM
      1 C11         -1.4050     1.3690    -0.3770 ca         1 IXX       0.321500
      2 C10         -1.4400     2.3260    -1.4170 ca         1 IXX      -0.137500
      3 C9          -2.3760     3.3710    -1.4250 ca         1 IXX      -0.097000
      4 C8          -3.3050     3.4760    -0.3860 ca         1 IXX      -0.125500
      5 C7          -3.2940     2.5390     0.6570 ca         1 IXX      -0.097000
      6 C2          -0.9020    -3.3190    -1.0160 ca         1 IXX      -0.097000
      7 C6          -2.4620     0.5500     1.9050 c3         1 IXX      -0.023100
      8 C5          -1.2930    -0.4110     2.1710 c3         1 IXX      -0.023100
      9 N1          -0.4280     0.3400    -0.4700 nh         1 IXX      -0.898200
     10 C3          -1.3200    -3.7320     0.2590 ca         1 IXX      -0.125500
     11 N2           4.5830    -0.1740     0.3100 n3         1 IXX      -0.713600
     12 C4          -1.4490    -2.7920     1.2940 ca         1 IXX      -0.097000
     13 C1          -0.6160    -1.9630    -1.2510 ca         1 IXX      -0.137500
     14 C12         -2.3570     1.4830     0.6860 ca         1 IXX      -0.101800
     15 C13         -1.1610    -1.4320     1.0570 ca         1 IXX      -0.101800
     16 C14         -0.7490    -1.0130    -0.2210 ca         1 IXX       0.321500
     17 C15          0.9610     0.6840    -0.8730 c3         1 IXX       0.245800
     18 C16          2.0650    -0.0620    -0.0930 c3         1 IXX      -0.109400
     19 C17          3.4800     0.3950    -0.5060 c3         1 IXX       0.169800
     20 C18          4.6820    -1.6520     0.2410 c3         1 IXX       0.150600
     21 C19          5.8800     0.4770     0.0190 c3         1 IXX       0.150600
     22 H10         -0.7420     2.2520    -2.2460 ha         1 IXX       0.114000
     23 H9          -2.3840     4.0920    -2.2400 ha         1 IXX       0.112000
     24 H8          -4.0360     4.2820    -0.3870 ha         1 IXX       0.113000
     25 H7          -4.0250     2.6370     1.4570 ha         1 IXX       0.108500
     26 H2          -0.7990    -4.0460    -1.8190 ha         1 IXX       0.112000
     27 H61         -3.3790    -0.0460     1.8190 hc         1 IXX       0.049450
     28 H51         -0.3650     0.1620     2.2850 hc         1 IXX       0.049450
     29 H3          -1.5430    -4.7800     0.4450 ha         1 IXX       0.113000
     30 H4          -1.7720    -3.1210     2.2800 ha         1 IXX       0.108500
     31 H1          -0.2910    -1.6460    -2.2380 ha         1 IXX       0.114000
     32 H151         1.0900     0.4910    -1.9470 h1         1 IXX       0.044200
     33 H152         1.1260     1.7600    -0.7170 h1         1 IXX       0.044200
     34 H161         1.9280     0.1160     0.9800 hc         1 IXX       0.055700
     35 H162         1.9640    -1.1380    -0.2660 hc         1 IXX       0.055700
     36 H171         3.5080     1.4900    -0.4270 h1         1 IXX       0.027200
     37 H172         3.6330     0.1480    -1.5660 h1         1 IXX       0.027200
     38 H181         5.5190    -2.0130     0.8530 h1         1 IXX       0.029700
     39 H182         3.7700    -2.1310     0.6200 h1         1 IXX       0.029700
     40 H183         4.8450    -1.9870    -0.7930 h1         1 IXX       0.029700
     41 H191         6.1920     0.2830    -1.0160 h1         1 IXX       0.029700
     42 H192         5.8100     1.5640     0.1600 h1         1 IXX       0.029700
     43 H193         6.6630     0.1010     0.6910 h1         1 IXX       0.029700
     44 H52         -1.4600    -0.9120     3.1330 hc         1 IXX       0.049450
     45 H62         -2.5900     1.1600     2.8070 hc         1 IXX       0.049450
@<TRIPOS>BOND
     1     1     2 ar  
     2     1     9 1   
     3     1    14 ar  
     4     2     3 ar  
     5     2    22 1   
     6     3     4 ar  
     7     3    23 1   
     8     4     5 ar  
     9     4    24 1   
    10     5    14 ar  
    11     5    25 1   
    12     6    10 ar  
    13     6    13 ar  
    14     6    26 1   
    15     7     8 1   
    16     7    14 1   
    17     7    27 1   
    18     7    45 1   
    19     8    15 1   
    20     8    28 1   
    21     8    44 1   
    22     9    16 1   
    23     9    17 1   
    24    10    12 ar  
    25    10    29 1   
    26    11    19 1   
    27    11    20 1   
    28    11    21 1   
    29    12    15 ar  
    30    12    30 1   
    31    13    16 ar  
    32    13    31 1   
    33    15    16 ar  
    34    17    18 1   
    35    17    32 1   
    36    17    33 1   
    37    18    19 1   
    38    18    34 1   
    39    18    35 1   
    40    19    36 1   
    41    19    37 1   
    42    20    38 1   
    43    20    39 1   
    44    20    40 1   
    45    21    41 1   
    46    21    42 1   
    47    21    43 1   
@<TRIPOS>SUBSTRUCTURE
     1 IXX         1 TEMP              0 ****  ****    0 ROOT
