@<TRIPOS>MOLECULE
IXY
   65    69     1     0     0
SMALL
abcg2


@<TRIPOS>ATOM
      1 C1           5.0590     4.8980    -0.4360 c6         1 IXY       0.003900
      2 C2           4.3320     3.6090    -0.2250 cc         1 IXY      -0.252300
      3 C3           4.8790     2.4560     0.2400 cd         1 IXY      -0.031300
      4 C4           6.3280     2.3580     0.6160 c6         1 IXY      -0.013100
      5 C5           7.1190     3.5350     0.0500 c6         1 IXY      -0.073400
      6 C6           6.4020     4.8580     0.2920 c6         1 IXY      -0.071400
      7 S7           2.6550     3.4290    -0.6090 ss         1 IXY       0.294000
      8 C8           2.6830     1.7680    -0.1390 cc         1 IXY      -0.040400
      9 C9           3.9320     1.3810     0.2800 cd         1 IXY      -0.244600
     10 C10          4.2320     0.0270     0.8070 c          1 IXY       0.639700
     11 O11          4.8080    -0.1450     1.8700 o          1 IXY      -0.591100
     12 N12          3.7890    -0.9790     0.0230 ns         1 IXY      -0.522900
     13 C13          3.6470    -2.3590     0.4410 c3         1 IXY       0.144300
     14 C14          2.1880    -2.6790     0.6550 ca         1 IXY      -0.122300
     15 C15          1.4540    -3.3450    -0.3210 ca         1 IXY      -0.105000
     16 C16          0.0900    -3.5590    -0.1570 ca         1 IXY      -0.116500
     17 C17         -0.5520    -3.1100     0.9880 ca         1 IXY      -0.109000
     18 C18          0.1740    -2.4450     1.9690 ca         1 IXY      -0.116500
     19 C19          1.5350    -2.2290     1.8020 ca         1 IXY      -0.105000
     20 N20          1.5420     0.9880    -0.1310 ns         1 IXY      -0.395100
     21 C21          0.3320     1.3460    -0.6390 c          1 IXY       0.597100
     22 O22          0.1430     2.4310    -1.1510 o          1 IXY      -0.553100
     23 C23         -0.7190     0.2700    -0.4840 c3         1 IXY       0.084800
     24 N24         -1.9870     0.6690    -1.0310 n7         1 IXY      -0.845400
     25 C25         -2.9670    -0.3990    -0.9660 c3         1 IXY       0.158800
     26 C26         -4.3010     0.0500    -1.5550 c3         1 IXY      -0.001200
     27 C27         -5.3370    -1.0230    -1.4880 cc         1 IXY      -0.144400
     28 C28         -5.7650    -1.8210    -2.5110 cd         1 IXY      -0.153100
     29 N29         -6.6980    -2.7130    -2.0570 na         1 IXY      -0.224700
     30 C30         -6.8990    -2.5150    -0.7240 ca         1 IXY      -0.047200
     31 C31         -6.0540    -1.4550    -0.3240 ca         1 IXY      -0.097800
     32 C32         -6.0710    -1.0410     1.0130 ca         1 IXY      -0.063000
     33 C33         -6.9110    -1.6810     1.9030 ca         1 IXY      -0.141000
     34 C34         -7.7420    -2.7340     1.4840 ca         1 IXY      -0.091000
     35 C35         -7.7480    -3.1650     0.1710 ca         1 IXY      -0.128000
     36 H1           5.2190     5.0670    -1.5060 hc         1 IXY       0.048700
     37 H2           4.4630     5.7430    -0.0810 hc         1 IXY       0.048700
     38 H4           6.4220     2.3320     1.7060 hc         1 IXY       0.059700
     39 H5           6.7500     1.4170     0.2550 hc         1 IXY       0.059700
     40 H6           8.1140     3.5560     0.4970 hc         1 IXY       0.040700
     41 H7           7.2620     3.3940    -1.0260 hc         1 IXY       0.040700
     42 H8           7.0190     5.6940    -0.0420 hc         1 IXY       0.042700
     43 H9           6.2390     4.9930     1.3650 hc         1 IXY       0.042700
     44 H11          3.4500    -0.7490    -0.8990 hn         1 IXY       0.317500
     45 H12          4.0750    -3.0100    -0.3240 h1         1 IXY       0.068200
     46 H13          4.2230    -2.5070     1.3530 h1         1 IXY       0.068200
     47 H14          1.9500    -3.6970    -1.2180 ha         1 IXY       0.121000
     48 H15         -0.4690    -4.0760    -0.9260 ha         1 IXY       0.117500
     49 H16         -1.6140    -3.2750     1.1160 ha         1 IXY       0.119000
     50 H17         -0.3200    -2.0920     2.8650 ha         1 IXY       0.117500
     51 H18          2.0940    -1.7140     2.5760 ha         1 IXY       0.121000
     52 H19          1.6100     0.0850     0.3210 hn         1 IXY       0.334500
     53 H20         -0.3700    -0.6250    -1.0120 h1         1 IXY       0.053200
     54 H21         -0.7600    -0.0190     0.5790 h1         1 IXY       0.053200
     55 H22         -2.3370     1.4710    -0.5190 hn         1 IXY       0.423000
     56 H24         -2.5900    -1.2510    -1.5410 h1         1 IXY       0.032700
     57 H25         -3.1250    -0.7670     0.0600 h1         1 IXY       0.032700
     58 H26         -4.6480     0.9380    -1.0160 hc         1 IXY       0.053700
     59 H27         -4.1470     0.3570    -2.5920 hc         1 IXY       0.053700
     60 H28         -5.4700    -1.8190    -3.5490 h4         1 IXY       0.213000
     61 H29         -7.1640    -3.4000    -2.6260 hn         1 IXY       0.351000
     62 H30         -5.4370    -0.2280     1.3490 ha         1 IXY       0.111000
     63 H31         -6.9350    -1.3690     2.9390 ha         1 IXY       0.111000
     64 H32         -8.3920    -3.2160     2.2030 ha         1 IXY       0.110000
     65 H33         -8.3890    -3.9770    -0.1490 ha         1 IXY       0.113000
@<TRIPOS>BOND
     1     1     2 1   
     2     1     6 1   
     3     1    36 1   
     4     1    37 1   
     5     2     3 2   
     6     2     7 1   
     7     3     4 1   
     8     3     9 1   
     9     4     5 1   
    10     4    38 1   
    11     4    39 1   
    12     5     6 1   
    13     5    40 1   
    14     5    41 1   
    15     6    42 1   
    16     6    43 1   
    17     7     8 1   
    18     8     9 2   
    19     8    20 1   
    20     9    10 1   
    21    10    11 2   
    22    10    12 1   
    23    12    13 1   
    24    12    44 1   
    25    13    14 1   
    26    13    45 1   
    27    13    46 1   
    28    14    15 ar  
    29    14    19 ar  
    30    15    16 ar  
    31    15    47 1   
    32    16    17 ar  
    33    16    48 1   
    34    17    18 ar  
    35    17    49 1   
    36    18    19 ar  
    37    18    50 1   
    38    19    51 1   
    39    20    21 1   
    40    20    52 1   
    41    21    22 2   
    42    21    23 1   
    43    23    24 1   
    44    23    53 1   
    45    23    54 1   
    46    24    25 1   
    47    24    55 1   
    48    25    26 1   
    49    25    56 1   
    50    25    57 1   
    51    26    27 1   
    52    26    58 1   
    53    26    59 1   
    54    27    28 2   
    55    27    31 1   
    56    28    29 1   
    57    28    60 1   
    58    29    30 1   
    59    29    61 1   
    60    30    31 ar  
    61    30    35 ar  
    62    31    32 ar  
    63    32    33 ar  
    64    32    62 1   
    65    33    34 ar  
    66    33    63 1   
    67    34    35 ar  
    68    34    64 1   
    69    35    65 1   
@<TRIPOS>SUBSTRUCTURE
     1 IXY         1 TEMP              0 ****  ****    0 ROOT
