@<TRIPOS>MOLECULE
IXY
   65    69     1     0     0
SMALL
No Charge or Current Charge


@<TRIPOS>ATOM
      1 C1           5.3660     5.0520    -0.2180 c6         1 IXY       0.003900
      2 C2           4.5540     3.7770    -0.1920 cc         1 IXY      -0.252300
      3 C3           5.0320     2.5500     0.2060 cd         1 IXY      -0.031300
      4 C4           6.4700     2.3640     0.6730 c6         1 IXY      -0.013100
      5 C5           7.3680     3.5800     0.3270 c6         1 IXY      -0.073400
      6 C6           6.6470     4.9110     0.6370 c6         1 IXY      -0.071400
      7 S7           2.8930     3.6750    -0.7380 ss         1 IXY       0.294000
      8 C8           2.8180     1.9630    -0.2930 cc         1 IXY      -0.040400
      9 C9           4.0600     1.4900     0.1310 cd         1 IXY      -0.244600
     10 C10          4.3360     0.0630     0.5160 c          1 IXY       0.639700
     11 O11          5.2480    -0.2960     1.2450 o          1 IXY      -0.591100
     12 N12          3.4810    -0.8450    -0.0600 ns         1 IXY      -0.522900
     13 C13          3.3580    -2.2520     0.3040 c3         1 IXY       0.144300
     14 C14          1.8850    -2.6100     0.4220 ca         1 IXY      -0.122300
     15 C15          1.2080    -3.2210    -0.6520 ca         1 IXY      -0.105000
     16 C16         -0.1610    -3.5210    -0.5480 ca         1 IXY      -0.116500
     17 C17         -0.8630    -3.2090     0.6290 ca         1 IXY      -0.109000
     18 C18         -0.1950    -2.5960     1.7010 ca         1 IXY      -0.116500
     19 C19          1.1750    -2.2960     1.5980 ca         1 IXY      -0.105000
     20 N20          1.6390     1.2090    -0.2330 ns         1 IXY      -0.395100
     21 C21          0.3670     1.5270    -0.6840 c          1 IXY       0.597100
     22 O22          0.0970     2.5820    -1.2480 o          1 IXY      -0.553100
     23 C23         -0.6920     0.4090    -0.4110 c3         1 IXY       0.084800
     24 N24         -1.9850     0.5340    -1.1590 n7         1 IXY      -0.845400
     25 C25         -2.9700    -0.5290    -0.8750 c3         1 IXY       0.158800
     26 C26         -4.2550    -0.3330    -1.7040 c3         1 IXY      -0.001200
     27 C27         -5.2740    -1.4170    -1.4630 cc         1 IXY      -0.144400
     28 C28         -5.6500    -2.4330    -2.3390 cd         1 IXY      -0.153100
     29 N29         -6.6220    -3.2580    -1.7220 na         1 IXY      -0.224700
     30 C30         -6.8290    -2.7250    -0.4630 ca         1 IXY      -0.047200
     31 C31         -6.0450    -1.6230    -0.2690 ca         1 IXY      -0.097800
     32 C32         -6.0760    -0.8940     0.9290 ca         1 IXY      -0.063000
     33 C33         -6.9460    -1.3360     1.9490 ca         1 IXY      -0.141000
     34 C34         -7.7570    -2.4790     1.7510 ca         1 IXY      -0.091000
     35 C35         -7.7030    -3.1870     0.5310 ca         1 IXY      -0.128000
     36 H1           5.6460     5.2940    -1.2530 hc         1 IXY       0.048700
     37 H2           4.7730     5.9030     0.1440 hc         1 IXY       0.048700
     38 H4           6.4830     2.2070     1.7600 hc         1 IXY       0.059700
     39 H5           6.9130     1.4650     0.2240 hc         1 IXY       0.059700
     40 H6           8.3100     3.5190     0.8880 hc         1 IXY       0.040700
     41 H7           7.6350     3.5490    -0.7380 hc         1 IXY       0.040700
     42 H8           7.3180     5.7600     0.4470 hc         1 IXY       0.042700
     43 H9           6.3870     4.9500     1.7040 hc         1 IXY       0.042700
     44 H11          2.8960    -0.4890    -0.8040 hn         1 IXY       0.317500
     45 H12          3.8420    -2.8670    -0.4670 h1         1 IXY       0.068200
     46 H13          3.8620    -2.4430     1.2610 h1         1 IXY       0.068200
     47 H14          1.7420    -3.4600    -1.5700 ha         1 IXY       0.121000
     48 H15         -0.6800    -3.9920    -1.3810 ha         1 IXY       0.117500
     49 H16         -1.9240    -3.4400     0.7080 ha         1 IXY       0.119000
     50 H17         -0.7380    -2.3510     2.6120 ha         1 IXY       0.117500
     51 H18          1.6850    -1.8170     2.4320 ha         1 IXY       0.121000
     52 H19          1.6820     0.3130     0.2390 hn         1 IXY       0.334500
     53 H20         -0.2140    -0.5490    -0.6580 h1         1 IXY       0.053200
     54 H21         -0.8730     0.4030     0.6730 h1         1 IXY       0.053200
     55 H22         -2.4060     1.4460    -0.9330 hn         1 IXY       0.423000
     56 H24         -2.5440    -1.5120    -1.1170 h1         1 IXY       0.032700
     57 H25         -3.2270    -0.5340     0.1930 h1         1 IXY       0.032700
     58 H26         -4.6960     0.6420    -1.4640 hc         1 IXY       0.053700
     59 H27         -3.9930    -0.3040    -2.7690 hc         1 IXY       0.053700
     60 H28         -5.2920    -2.6290    -3.3470 h4         1 IXY       0.213000
     61 H29         -7.0750    -4.0750    -2.1210 hn         1 IXY       0.351000
     62 H30         -5.4530    -0.0150     1.0710 ha         1 IXY       0.111000
     63 H31         -6.9950    -0.7940     2.8910 ha         1 IXY       0.111000
     64 H32         -8.4250    -2.8130     2.5420 ha         1 IXY       0.110000
     65 H33         -8.3240    -4.0650     0.3690 ha         1 IXY       0.113000
@<TRIPOS>BOND
     1     1     2 1   
     2     1     6 1   
     3     1    36 1   
     4     1    37 1   
     5     2     3 2   
     6     2     7 1   
     7     3     4 1   
     8     3     9 1   
     9     4     5 1   
    10     4    38 1   
    11     4    39 1   
    12     5     6 1   
    13     5    40 1   
    14     5    41 1   
    15     6    42 1   
    16     6    43 1   
    17     7     8 1   
    18     8     9 2   
    19     8    20 1   
    20     9    10 1   
    21    10    11 2   
    22    10    12 1   
    23    12    13 1   
    24    12    44 1   
    25    13    14 1   
    26    13    45 1   
    27    13    46 1   
    28    14    15 ar  
    29    14    19 ar  
    30    15    16 ar  
    31    15    47 1   
    32    16    17 ar  
    33    16    48 1   
    34    17    18 ar  
    35    17    49 1   
    36    18    19 ar  
    37    18    50 1   
    38    19    51 1   
    39    20    21 1   
    40    20    52 1   
    41    21    22 2   
    42    21    23 1   
    43    23    24 1   
    44    23    53 1   
    45    23    54 1   
    46    24    25 1   
    47    24    55 1   
    48    25    26 1   
    49    25    56 1   
    50    25    57 1   
    51    26    27 1   
    52    26    58 1   
    53    26    59 1   
    54    27    28 2   
    55    27    31 1   
    56    28    29 1   
    57    28    60 1   
    58    29    30 1   
    59    29    61 1   
    60    30    31 ar  
    61    30    35 ar  
    62    31    32 ar  
    63    32    33 ar  
    64    32    62 1   
    65    33    34 ar  
    66    33    63 1   
    67    34    35 ar  
    68    34    64 1   
    69    35    65 1   
@<TRIPOS>SUBSTRUCTURE
     1 IXY         1 TEMP              0 ****  ****    0 ROOT
