@<TRIPOS>MOLECULE
IXZ
   58    61     1     0     0
SMALL
abcg2


@<TRIPOS>ATOM
      1 O1           1.9320    -1.6410     0.4680 o          1 IXZ      -0.554100
      2 C18          1.3730    -0.6380     0.0740 c          1 IXZ       0.598100
      3 C19          2.0730     0.6590    -0.2640 c3         1 IXZ       0.084800
      4 N2           3.4680     0.6230     0.0790 n7         1 IXZ      -0.842400
      5 C20          4.1240     1.8850    -0.2180 c3         1 IXZ       0.207100
      6 C21          5.5780     1.8380     0.1650 ca         1 IXZ      -0.096300
      7 C23          5.9490     1.5710     1.4830 ca         1 IXZ      -0.092500
      8 C25          7.2860     1.5280     1.8450 ca         1 IXZ      -0.114000
      9 C26          8.2760     1.7460     0.8930 ca         1 IXZ      -0.103000
     10 C24          7.9170     2.0060    -0.4220 ca         1 IXZ      -0.114000
     11 C22          6.5740     2.0500    -0.7810 ca         1 IXZ      -0.092500
     12 N1           0.0290    -0.5950    -0.1290 ns         1 IXZ      -0.391100
     13 C2          -0.8430    -1.6470     0.0620 cc         1 IXZ      -0.046400
     14 S           -0.2960    -3.2200     0.5100 ss         1 IXZ       0.316000
     15 C3          -2.2010    -1.6160    -0.1420 cd         1 IXZ      -0.241600
     16 C1          -2.8110    -2.8950     0.0630 cd         1 IXZ       0.013000
     17 C4          -4.2550    -3.1600    -0.0280 ca         1 IXZ      -0.014000
     18 C6          -5.1780    -2.2930     0.5590 ca         1 IXZ      -0.090000
     19 C8          -6.5370    -2.5640     0.5030 ca         1 IXZ      -0.111500
     20 C9          -6.9960    -3.7070    -0.1390 ca         1 IXZ      -0.106000
     21 C7          -6.0860    -4.5760    -0.7250 ca         1 IXZ      -0.111500
     22 C5          -4.7260    -4.3040    -0.6710 ca         1 IXZ      -0.090000
     23 C           -1.8980    -3.8370     0.4230 cc         1 IXZ      -0.289000
     24 C10         -2.9080    -0.4260    -0.6890 c          1 IXZ       0.637700
     25 O           -3.5900    -0.4860    -1.6970 o          1 IXZ      -0.573100
     26 N           -2.6740     0.7110     0.0020 ns         1 IXZ      -0.529900
     27 C11         -3.0590     2.0410    -0.4260 c3         1 IXZ       0.143300
     28 C12         -1.8460     2.9360    -0.4260 ca         1 IXZ      -0.113300
     29 C14         -1.6200     3.8290     0.6140 ca         1 IXZ      -0.104500
     30 C16         -0.4610     4.5960     0.6490 ca         1 IXZ      -0.114500
     31 C17          0.4830     4.4750    -0.3600 ca         1 IXZ      -0.107000
     32 C15          0.2620     3.5900    -1.4090 ca         1 IXZ      -0.114500
     33 C13         -0.8950     2.8240    -1.4400 ca         1 IXZ      -0.104500
     34 H1           1.8780     0.8760    -1.3280 h1         1 IXZ       0.052200
     35 H2           1.5890     1.4710     0.2910 h1         1 IXZ       0.052200
     36 H3           3.9290    -0.1180    -0.4340 hn         1 IXZ       0.432000
     37 H5           4.0320     2.1750    -1.2760 h1         1 IXZ       0.035200
     38 H6           3.6180     2.6680     0.3560 h1         1 IXZ       0.035200
     39 H7           5.1820     1.3990     2.2280 ha         1 IXZ       0.116000
     40 H8           7.5590     1.3240     2.8730 ha         1 IXZ       0.113500
     41 H9           9.3200     1.7110     1.1750 ha         1 IXZ       0.113000
     42 H10          8.6800     2.1730    -1.1710 ha         1 IXZ       0.113500
     43 H11          6.3010     2.2510    -1.8100 ha         1 IXZ       0.116000
     44 H12         -0.3760     0.2760    -0.4450 hn         1 IXZ       0.336500
     45 H13         -4.8360    -1.4090     1.0840 ha         1 IXZ       0.112000
     46 H14         -7.2380    -1.8830     0.9680 ha         1 IXZ       0.110500
     47 H15         -8.0570    -3.9180    -0.1830 ha         1 IXZ       0.111000
     48 H16         -6.4340    -5.4670    -1.2310 ha         1 IXZ       0.110500
     49 H17         -4.0260    -4.9780    -1.1480 ha         1 IXZ       0.112000
     50 H18         -2.0890    -4.8640     0.6950 h4         1 IXZ       0.156000
     51 H19         -2.2690     0.6320     0.9230 hn         1 IXZ       0.317500
     52 H20         -3.4900     1.9660    -1.4230 h1         1 IXZ       0.066700
     53 H21         -3.8310     2.4400     0.2350 h1         1 IXZ       0.066700
     54 H22         -2.3520     3.9250     1.4080 ha         1 IXZ       0.118000
     55 H23         -0.2980     5.2870     1.4660 ha         1 IXZ       0.116000
     56 H24          1.3860     5.0720    -0.3350 ha         1 IXZ       0.116000
     57 H25          0.9920     3.4960    -2.2030 ha         1 IXZ       0.116000
     58 H26         -1.0650     2.1400    -2.2650 ha         1 IXZ       0.118000
@<TRIPOS>BOND
     1     1     2 2   
     2     2     3 1   
     3     2    12 1   
     4     3     4 1   
     5     3    34 1   
     6     3    35 1   
     7     4     5 1   
     8     4    36 1   
     9     5     6 1   
    10     5    37 1   
    11     5    38 1   
    12     6     7 ar  
    13     6    11 ar  
    14     7     8 ar  
    15     7    39 1   
    16     8     9 ar  
    17     8    40 1   
    18     9    10 ar  
    19     9    41 1   
    20    10    11 ar  
    21    10    42 1   
    22    11    43 1   
    23    12    13 1   
    24    12    44 1   
    25    13    14 1   
    26    13    15 2   
    27    14    23 1   
    28    15    16 1   
    29    15    24 1   
    30    16    17 1   
    31    16    23 2   
    32    17    18 ar  
    33    17    22 ar  
    34    18    19 ar  
    35    18    45 1   
    36    19    20 ar  
    37    19    46 1   
    38    20    21 ar  
    39    20    47 1   
    40    21    22 ar  
    41    21    48 1   
    42    22    49 1   
    43    23    50 1   
    44    24    25 2   
    45    24    26 1   
    46    26    27 1   
    47    26    51 1   
    48    27    28 1   
    49    27    52 1   
    50    27    53 1   
    51    28    29 ar  
    52    28    33 ar  
    53    29    30 ar  
    54    29    54 1   
    55    30    31 ar  
    56    30    55 1   
    57    31    32 ar  
    58    31    56 1   
    59    32    33 ar  
    60    32    57 1   
    61    33    58 1   
@<TRIPOS>SUBSTRUCTURE
     1 IXZ         1 TEMP              0 ****  ****    0 ROOT
