@<TRIPOS>MOLECULE
IXZ
   58    61     1     0     0
SMALL
No Charge or Current Charge


@<TRIPOS>ATOM
      1 O1           1.9800    -1.7650     0.2080 o          1 IXZ      -0.554100
      2 C18          1.3180    -0.7650    -0.0490 c          1 IXZ       0.598100
      3 C19          1.9610     0.6330    -0.3200 c3         1 IXZ       0.084800
      4 N2           3.3790     0.7950     0.1360 n7         1 IXZ      -0.842400
      5 C20          3.9890     2.0980    -0.1780 c3         1 IXZ       0.207100
      6 C21          5.4340     2.1380     0.3000 ca         1 IXZ      -0.096300
      7 C23          5.7300     2.4690     1.6370 ca         1 IXZ      -0.092500
      8 C25          7.0640     2.5110     2.0790 ca         1 IXZ      -0.114000
      9 C26          8.1110     2.2230     1.1870 ca         1 IXZ      -0.103000
     10 C24          7.8220     1.8920    -0.1480 ca         1 IXZ      -0.114000
     11 C22          6.4880     1.8490    -0.5900 ca         1 IXZ      -0.092500
     12 N1          -0.0670    -0.7700    -0.1260 ns         1 IXZ      -0.391100
     13 C2          -0.9620    -1.8380     0.0310 cc         1 IXZ      -0.046400
     14 S           -0.4840    -3.5340     0.1310 ss         1 IXZ       0.316000
     15 C3          -2.3480    -1.7020    -0.0450 cd         1 IXZ      -0.241600
     16 C1          -3.0200    -2.9840    -0.0800 cd         1 IXZ       0.013000
     17 C4          -4.4820    -3.2250    -0.1790 ca         1 IXZ      -0.014000
     18 C6          -5.4140    -2.3840     0.4710 ca         1 IXZ      -0.090000
     19 C8          -6.7930    -2.6450     0.4020 ca         1 IXZ      -0.111500
     20 C9          -7.2650    -3.7610    -0.3060 ca         1 IXZ      -0.106000
     21 C7          -6.3520    -4.6220    -0.9340 ca         1 IXZ      -0.111500
     22 C5          -4.9720    -4.3620    -0.8620 ca         1 IXZ      -0.090000
     23 C           -2.1380    -4.0380    -0.1190 cc         1 IXZ      -0.289000
     24 C10         -3.0160    -0.3680    -0.2050 c          1 IXZ       0.637700
     25 O           -4.0380    -0.1760    -0.8440 o          1 IXZ      -0.573100
     26 N           -2.3720     0.6550     0.4510 ns         1 IXZ      -0.529900
     27 C11         -2.6550     2.0800     0.2920 c3         1 IXZ       0.143300
     28 C12         -1.4010     2.7980    -0.1810 ca         1 IXZ      -0.113300
     29 C14         -0.6120     3.5340     0.7250 ca         1 IXZ      -0.104500
     30 C16          0.5580     4.1780     0.2850 ca         1 IXZ      -0.114500
     31 C17          0.9470     4.0880    -1.0630 ca         1 IXZ      -0.107000
     32 C15          0.1660     3.3520    -1.9700 ca         1 IXZ      -0.114500
     33 C13         -1.0040     2.7090    -1.5300 ca         1 IXZ      -0.104500
     34 H1           1.8790     0.8120    -1.4010 h1         1 IXZ       0.052200
     35 H2           1.3270     1.3790     0.1760 h1         1 IXZ       0.052200
     36 H3           3.9520     0.0600    -0.3000 hn         1 IXZ       0.432000
     37 H5           3.9620     2.2830    -1.2610 h1         1 IXZ       0.035200
     38 H6           3.4280     2.9090     0.3060 h1         1 IXZ       0.035200
     39 H7           4.9240     2.6910     2.3340 ha         1 IXZ       0.116000
     40 H8           7.2860     2.7670     3.1130 ha         1 IXZ       0.113500
     41 H9           9.1430     2.2560     1.5290 ha         1 IXZ       0.113000
     42 H10          8.6310     1.6680    -0.8390 ha         1 IXZ       0.113500
     43 H11          6.2740     1.5920    -1.6260 ha         1 IXZ       0.116000
     44 H12         -0.4560     0.1350    -0.3650 hn         1 IXZ       0.336500
     45 H13         -5.0720    -1.5420     1.0650 ha         1 IXZ       0.112000
     46 H14         -7.4960    -1.9870     0.9080 ha         1 IXZ       0.110500
     47 H15         -8.3320    -3.9640    -0.3590 ha         1 IXZ       0.111000
     48 H16         -6.7130    -5.4930    -1.4770 ha         1 IXZ       0.110500
     49 H17         -4.2880    -5.0390    -1.3650 ha         1 IXZ       0.112000
     50 H18         -2.3430    -5.0970    -0.1790 h4         1 IXZ       0.156000
     51 H19         -1.6350     0.3800     1.0880 hn         1 IXZ       0.317500
     52 H20         -3.4630     2.2320    -0.4360 h1         1 IXZ       0.066700
     53 H21         -2.9870     2.4870     1.2560 h1         1 IXZ       0.066700
     54 H22         -0.9020     3.6050     1.7710 ha         1 IXZ       0.118000
     55 H23          1.1630     4.7450     0.9880 ha         1 IXZ       0.116000
     56 H24          1.8520     4.5870    -1.4030 ha         1 IXZ       0.116000
     57 H25          0.4670     3.2810    -3.0130 ha         1 IXZ       0.116000
     58 H26         -1.6030     2.1400    -2.2390 ha         1 IXZ       0.118000
@<TRIPOS>BOND
     1     1     2 2   
     2     2     3 1   
     3     2    12 1   
     4     3     4 1   
     5     3    34 1   
     6     3    35 1   
     7     4     5 1   
     8     4    36 1   
     9     5     6 1   
    10     5    37 1   
    11     5    38 1   
    12     6     7 ar  
    13     6    11 ar  
    14     7     8 ar  
    15     7    39 1   
    16     8     9 ar  
    17     8    40 1   
    18     9    10 ar  
    19     9    41 1   
    20    10    11 ar  
    21    10    42 1   
    22    11    43 1   
    23    12    13 1   
    24    12    44 1   
    25    13    14 1   
    26    13    15 2   
    27    14    23 1   
    28    15    16 1   
    29    15    24 1   
    30    16    17 1   
    31    16    23 2   
    32    17    18 ar  
    33    17    22 ar  
    34    18    19 ar  
    35    18    45 1   
    36    19    20 ar  
    37    19    46 1   
    38    20    21 ar  
    39    20    47 1   
    40    21    22 ar  
    41    21    48 1   
    42    22    49 1   
    43    23    50 1   
    44    24    25 2   
    45    24    26 1   
    46    26    27 1   
    47    26    51 1   
    48    27    28 1   
    49    27    52 1   
    50    27    53 1   
    51    28    29 ar  
    52    28    33 ar  
    53    29    30 ar  
    54    29    54 1   
    55    30    31 ar  
    56    30    55 1   
    57    31    32 ar  
    58    31    56 1   
    59    32    33 ar  
    60    32    57 1   
    61    33    58 1   
@<TRIPOS>SUBSTRUCTURE
     1 IXZ         1 TEMP              0 ****  ****    0 ROOT
