@<TRIPOS>MOLECULE
IY0
   29    30     1     0     0
SMALL
No Charge or Current Charge


@<TRIPOS>ATOM
      1 C13         27.3080    51.5370    24.8300 cc         1 IY0      -0.010900
      2 C1          31.3960    51.2780    27.7590 cc         1 IY0       0.776500
      3 C2          31.3080    51.2220    26.3590 cc         1 IY0      -0.550600
      4 C3          30.1040    51.5300    25.7700 cd         1 IY0       0.054600
      5 C5          29.1960    51.9370    28.0110 c          1 IY0       0.696400
      6 C9          27.8650    52.1790    25.9190 cd         1 IY0       0.062900
      7 C11         26.0690    53.2940    25.4020 cd         1 IY0      -0.125700
      8 C12         26.1380    52.2800    24.4840 cc         1 IY0       0.505700
      9 C16         25.0530    54.4050    25.4850 c3         1 IY0       0.238300
     10 N4          29.0360    51.8470    26.6100 n          1 IY0      -0.250500
     11 N6          30.4460    51.6180    28.5560 nd         1 IY0      -0.793100
     12 O10         27.1030    53.2560    26.3140 os         1 IY0      -0.246000
     13 O14         27.7240    50.3910    24.2150 oh         1 IY0      -0.507100
     14 O15         25.4060    51.9680    23.5430 o          1 IY0      -0.792700
     15 O17         23.8590    53.9980    26.1760 os         1 IY0      -0.610400
     16 O19         22.9400    52.8920    24.2190 oh         1 IY0      -0.888400
     17 O20         21.5960    52.7860    26.3300 o          1 IY0      -0.852500
     18 O21         23.6590    51.4280    26.1050 o          1 IY0      -0.852500
     19 P18         22.9780    52.7060    25.7840 p5         1 IY0       1.398800
     20 H1          32.1790    50.9580    25.7710 ha         1 IY0       0.177000
     21 H2          29.9250    51.5890    24.6980 h4         1 IY0       0.205000
     22 H3          25.5080    55.2550    26.0090 h1         1 IY0       0.003700
     23 H4          24.8140    54.7490    24.4700 h1         1 IY0       0.003700
     24 H5          32.6120    51.3460    29.2760 hn         1 IY0       0.482500
     25 H6          33.3630    51.1490    27.7470 hn         1 IY0       0.482500
     26 H7          28.4130    49.9860    24.7820 ho         1 IY0       0.412000
     27 H8          23.8060    52.4250    24.0960 ho         1 IY0       0.510000
     28 N7          32.5480    51.0040    28.3270 nv         1 IY0      -1.062200
     29 O8          28.2920    52.2530    28.7680 o          1 IY0      -0.468000
@<TRIPOS>BOND
     1     1     6 2   
     2     1     8 1   
     3     1    13 1   
     4     2     3 1   
     5     2    11 2   
     6     2    28 1   
     7     3     4 2   
     8     3    20 1   
     9     4    10 1   
    10     4    21 1   
    11     5    10 1   
    12     5    11 1   
    13     5    29 2   
    14     6    10 1   
    15     6    12 1   
    16     7     8 2   
    17     7     9 1   
    18     7    12 1   
    19     8    14 1   
    20     9    15 1   
    21     9    22 1   
    22     9    23 1   
    23    13    26 1   
    24    15    19 1   
    25    16    19 1   
    26    16    27 1   
    27    17    19 1   
    28    18    19 1   
    29    24    28 1   
    30    25    28 1   
@<TRIPOS>SUBSTRUCTURE
     1 IY0         1 TEMP              0 ****  ****    0 ROOT
