@<TRIPOS>MOLECULE
IY0
   29    30     1     0     0
SMALL
bcc


@<TRIPOS>ATOM
      1 C13         27.2000    51.2270    24.8840 cc         1 IY0      -0.076200
      2 C1          31.3920    51.4270    27.7790 cc         1 IY0       0.776500
      3 C2          31.4390    51.9120    26.4320 cc         1 IY0      -0.500600
      4 C3          30.2570    52.0780    25.8130 cd         1 IY0       0.104600
      5 C5          29.0720    51.3130    27.7740 c          1 IY0       0.838900
      6 C9          27.8720    51.9930    25.7740 cd         1 IY0       0.172600
      7 C11         26.1190    53.1580    25.1820 cd         1 IY0      -0.016000
      8 C12         26.0200    51.9740    24.4830 cc         1 IY0       0.440400
      9 C16         25.2040    54.3180    25.2530 c3         1 IY0       0.215100
     10 N4          29.0830    51.7860    26.4390 n          1 IY0      -0.317500
     11 N6          30.2590    51.1490    28.3920 nd         1 IY0      -0.793100
     12 O10         27.2380    53.1610    25.9840 os         1 IY0      -0.334800
     13 O14         27.4820    49.9990    24.4060 oh         1 IY0      -0.468100
     14 O15         25.1030    51.5660    23.6710 o          1 IY0      -0.792700
     15 O17         24.1200    54.2130    26.1700 os         1 IY0      -0.587200
     16 O19         22.9800    52.6660    24.4620 oh         1 IY0      -0.879400
     17 O20         21.6740    53.6580    26.3820 o          1 IY0      -0.852500
     18 O21         23.4480    51.8240    26.8490 o          1 IY0      -0.852500
     19 P18         22.9820    53.0030    26.0400 p5         1 IY0       1.398800
     20 H1          32.3710    52.1380    25.9350 ha         1 IY0       0.127000
     21 H2          30.1760    52.4430    24.7980 h4         1 IY0       0.155000
     22 H3          25.7660    55.2080    25.5510 h1         1 IY0       0.003700
     23 H4          24.8230    54.5190    24.2460 h1         1 IY0       0.003700
     24 H5          32.5110    50.9170    29.3960 hn         1 IY0       0.427300
     25 H6          33.4230    51.4520    28.0320 hn         1 IY0       0.427300
     26 H7          28.2750    49.6480    24.8280 ho         1 IY0       0.373000
     27 H8          23.8260    52.1900    24.1130 ho         1 IY0       0.501000
     28 N7          32.5300    51.2470    28.4460 nv         1 IY0      -0.951800
     29 O8          27.9990    51.0780    28.3020 o          1 IY0      -0.543500
@<TRIPOS>BOND
     1     1     6 2   
     2     1     8 1   
     3     1    13 1   
     4     2     3 1   
     5     2    11 2   
     6     2    28 1   
     7     3     4 2   
     8     3    20 1   
     9     4    10 1   
    10     4    21 1   
    11     5    10 1   
    12     5    11 1   
    13     5    29 2   
    14     6    10 1   
    15     6    12 1   
    16     7     8 2   
    17     7     9 1   
    18     7    12 1   
    19     8    14 1   
    20     9    15 1   
    21     9    22 1   
    22     9    23 1   
    23    13    26 1   
    24    15    19 1   
    25    16    19 1   
    26    16    27 1   
    27    17    19 1   
    28    18    19 1   
    29    24    28 1   
    30    25    28 1   
@<TRIPOS>SUBSTRUCTURE
     1 IY0         1 TEMP              0 ****  ****    0 ROOT
