@<TRIPOS>MOLECULE
IY1
   38    41     1     0     0
SMALL
abcg2


@<TRIPOS>ATOM
      1 N3           3.2870     4.7350     0.0110 n1         1 IY1      -0.438000
      2 C18          2.8750     3.6580     0.0080 cg         1 IY1       0.299700
      3 C10          2.3780     2.3300     0.0050 cc         1 IY1      -0.111900
      4 C9           3.2360     1.2580    -0.0060 cd         1 IY1      -0.030000
      5 C8           2.6830    -0.0190    -0.0100 cd         1 IY1      -0.124100
      6 N            3.2940    -1.2500    -0.0290 na         1 IY1      -0.074700
      7 C            4.7160    -1.4860     0.0320 c3         1 IY1       0.065900
      8 C11          0.9330     2.1950     0.0120 c          1 IY1       0.575200
      9 O            0.1540     3.1350     0.0190 o          1 IY1      -0.520000
     10 N1           0.4700     0.8870     0.0110 n          1 IY1      -0.189200
     11 C12         -0.9430     0.6910     0.0110 ca         1 IY1       0.073600
     12 C17         -1.6180     0.6180     1.2190 ca         1 IY1      -0.101500
     13 C16         -2.9820     0.3800     1.2240 ca         1 IY1      -0.044500
     14 C15         -3.6350     0.2240     0.0110 ca         1 IY1      -0.172200
     15 N2          -5.0710    -0.0370     0.0120 no         1 IY1       0.693200
     16 O2          -5.6210    -0.1730    -1.0540 o          1 IY1      -0.394000
     17 O1          -5.6320    -0.1030     1.0790 o          1 IY1      -0.394000
     18 C14         -2.9690     0.3060    -1.2020 ca         1 IY1      -0.044500
     19 C13         -1.6060     0.5460    -1.1970 ca         1 IY1      -0.101500
     20 C7           1.3020    -0.1950     0.0060 cc         1 IY1       0.093400
     21 C6           1.0440    -1.5920     0.0120 ca         1 IY1      -0.142800
     22 C1           2.3250    -2.2040    -0.0000 ca         1 IY1       0.012800
     23 C5          -0.1070    -2.3990     0.0330 ca         1 IY1      -0.036000
     24 C4           0.0440    -3.7650     0.0440 ca         1 IY1      -0.147000
     25 C3           1.3220    -4.3540     0.0370 ca         1 IY1      -0.059000
     26 C2           2.4700    -3.5940     0.0180 ca         1 IY1      -0.145000
     27 H1           4.3080     1.4140    -0.0100 ha         1 IY1       0.203000
     28 H2           5.0580    -1.6130     1.0600 h1         1 IY1       0.055033
     29 H3           4.9660    -2.3770    -0.5380 h1         1 IY1       0.055033
     30 H4           5.2480    -0.6500    -0.4150 h1         1 IY1       0.055033
     31 H5          -1.0830     0.7350     2.1510 ha         1 IY1       0.143500
     32 H6          -3.5130     0.3160     2.1620 ha         1 IY1       0.158000
     33 H7          -3.4890     0.1850    -2.1400 ha         1 IY1       0.158000
     34 H8          -1.0610     0.6090    -2.1290 ha         1 IY1       0.143500
     35 H9          -1.0970    -1.9680     0.0420 ha         1 IY1       0.120000
     36 H10         -0.8310    -4.4000     0.0600 ha         1 IY1       0.121000
     37 H11          1.4040    -5.4330     0.0510 ha         1 IY1       0.118000
     38 H12          3.4460    -4.0600     0.0200 ha         1 IY1       0.123000
@<TRIPOS>BOND
     1     1     2 3   
     2     2     3 1   
     3     3     4 2   
     4     3     8 1   
     5     4     5 1   
     6     4    27 1   
     7     5     6 1   
     8     5    20 2   
     9     6     7 1   
    10     6    22 1   
    11     7    28 1   
    12     7    29 1   
    13     7    30 1   
    14     8     9 2   
    15     8    10 1   
    16    10    11 1   
    17    10    20 1   
    18    11    12 ar  
    19    11    19 ar  
    20    12    13 ar  
    21    12    31 1   
    22    13    14 ar  
    23    13    32 1   
    24    14    15 1   
    25    14    18 ar  
    26    15    16 1   
    27    15    17 1   
    28    18    19 ar  
    29    18    33 1   
    30    19    34 1   
    31    20    21 1   
    32    21    22 ar  
    33    21    23 ar  
    34    22    26 ar  
    35    23    24 ar  
    36    23    35 1   
    37    24    25 ar  
    38    24    36 1   
    39    25    26 ar  
    40    25    37 1   
    41    26    38 1   
@<TRIPOS>SUBSTRUCTURE
     1 IY1         1 TEMP              0 ****  ****    0 ROOT
