@<TRIPOS>MOLECULE
IY1
   38    41     1     0     0
SMALL
No Charge or Current Charge


@<TRIPOS>ATOM
      1 N3           3.4340     4.7270     0.6700 n1         1 IY1      -0.438000
      2 C18          2.9780     3.6600     0.5480 cg         1 IY1       0.299700
      3 C10          2.4630     2.3440     0.3920 cc         1 IY1      -0.111900
      4 C9           3.2900     1.2970     0.0190 cd         1 IY1      -0.030000
      5 C8           2.6780     0.0120    -0.0780 cd         1 IY1      -0.124100
      6 N            3.2970    -1.2180    -0.3660 na         1 IY1      -0.074700
      7 C            4.7090    -1.5160    -0.6550 c3         1 IY1       0.065900
      8 C11          0.9870     2.1920     0.6080 c          1 IY1       0.575200
      9 O            0.2600     3.1480     0.8640 o          1 IY1      -0.520000
     10 N1           0.4560     0.8800     0.4460 n          1 IY1      -0.189200
     11 C12         -0.9540     0.7120     0.1890 ca         1 IY1       0.073600
     12 C17         -1.9060     1.1530     1.1300 ca         1 IY1      -0.101500
     13 C16         -3.2780     0.9210     0.9300 ca         1 IY1      -0.044500
     14 C15         -3.7260     0.2160    -0.2110 ca         1 IY1      -0.172200
     15 N2          -5.1880    -0.0360    -0.4280 no         1 IY1       0.693200
     16 O2          -5.5300    -0.6630    -1.4390 o          1 IY1      -0.394000
     17 O1          -5.9870     0.3960     0.4140 o          1 IY1      -0.394000
     18 C14         -2.7700    -0.2570    -1.1390 ca         1 IY1      -0.044500
     19 C13         -1.4000    -0.0210    -0.9310 ca         1 IY1      -0.101500
     20 C7           1.3440    -0.1640     0.1910 cc         1 IY1       0.093400
     21 C6           1.1130    -1.5920     0.1780 ca         1 IY1      -0.142800
     22 C1           2.3090    -2.1810    -0.1770 ca         1 IY1       0.012800
     23 C5          -0.0090    -2.3640     0.5290 ca         1 IY1      -0.036000
     24 C4           0.0980    -3.7670     0.4440 ca         1 IY1      -0.147000
     25 C3           1.3110    -4.3720     0.0440 ca         1 IY1      -0.059000
     26 C2           2.4350    -3.5770    -0.2580 ca         1 IY1      -0.145000
     27 H1           4.3540     1.4430    -0.1560 ha         1 IY1       0.203000
     28 H2           5.1900    -1.9190     0.2440 h1         1 IY1       0.055033
     29 H3           4.7730    -2.2530    -1.4650 h1         1 IY1       0.055033
     30 H4           5.2300    -0.6030    -0.9660 h1         1 IY1       0.055033
     31 H5          -1.5830     1.6730     2.0280 ha         1 IY1       0.143500
     32 H6          -3.9860     1.2850     1.6740 ha         1 IY1       0.158000
     33 H7          -3.0780    -0.8130    -2.0240 ha         1 IY1       0.158000
     34 H8          -0.6820    -0.3960    -1.6560 ha         1 IY1       0.143500
     35 H9          -0.9330    -1.9080     0.8730 ha         1 IY1       0.120000
     36 H10         -0.7570    -4.3890     0.7000 ha         1 IY1       0.121000
     37 H11          1.3840    -5.4560    -0.0100 ha         1 IY1       0.118000
     38 H12          3.3780    -4.0420    -0.5360 ha         1 IY1       0.123000
@<TRIPOS>BOND
     1     1     2 3   
     2     2     3 1   
     3     3     4 2   
     4     3     8 1   
     5     4     5 1   
     6     4    27 1   
     7     5     6 1   
     8     5    20 2   
     9     6     7 1   
    10     6    22 1   
    11     7    28 1   
    12     7    29 1   
    13     7    30 1   
    14     8     9 2   
    15     8    10 1   
    16    10    11 1   
    17    10    20 1   
    18    11    12 ar  
    19    11    19 ar  
    20    12    13 ar  
    21    12    31 1   
    22    13    14 ar  
    23    13    32 1   
    24    14    15 1   
    25    14    18 ar  
    26    15    16 1   
    27    15    17 1   
    28    18    19 ar  
    29    18    33 1   
    30    19    34 1   
    31    20    21 1   
    32    21    22 ar  
    33    21    23 ar  
    34    22    26 ar  
    35    23    24 ar  
    36    23    35 1   
    37    24    25 ar  
    38    24    36 1   
    39    25    26 ar  
    40    25    37 1   
    41    26    38 1   
@<TRIPOS>SUBSTRUCTURE
     1 IY1         1 TEMP              0 ****  ****    0 ROOT
