@<TRIPOS>MOLECULE
IY2
   49    52     1     0     0
SMALL
No Charge or Current Charge


@<TRIPOS>ATOM
      1 C5          36.5560   129.1910    38.6300 c          1 IY2       0.632700
      2 C8          42.2040   125.7350    38.3310 cc         1 IY2       0.128400
      3 C13         42.6130   126.8750    37.6690 cd         1 IY2      -0.274100
      4 C17         40.0520   129.4220    37.2530 cc         1 IY2      -0.169000
      5 C22         42.5800   123.3450    38.9590 ca         1 IY2      -0.065000
      6 C24         44.8140   122.3900    39.0290 ca         1 IY2       0.172000
      7 C26         45.3550   123.6220    38.6380 ca         1 IY2      -0.158000
      8 C28         33.6360   128.9300    39.8080 c3         1 IY2       0.069900
      9 C1          35.2950   131.2640    37.5430 cc         1 IY2      -0.255600
     10 C2          35.4090   130.1340    38.3560 cd         1 IY2      -0.155600
     11 C3          40.4490   126.9530    38.3220 cd         1 IY2      -0.051000
     12 N4          40.8820   125.7730    38.7270 nc         1 IY2      -0.297600
     13 N6          41.4670   127.6230    37.7040 na         1 IY2       0.122100
     14 C9          39.1420   127.5050    38.4640 cd         1 IY2      -0.119000
     15 N10         34.1100   129.9800    38.8890 na         1 IY2       0.179800
     16 N11         33.2240   130.9520    38.4680 nd         1 IY2      -0.510800
     17 C12         33.9650   131.6930    37.6840 cc         1 IY2       0.261900
     18 C14         38.9480   128.7700    37.9260 cc         1 IY2       0.078600
     19 N15         37.7350   129.4570    37.9680 ns         1 IY2      -0.396100
     20 C16         41.3250   128.8760    37.1160 cd         1 IY2      -0.092000
     21 C18         43.1050   124.5920    38.5470 ca         1 IY2      -0.030800
     22 N19         35.8680   132.8750    35.7120 n          1 IY2      -0.386800
     23 O20         36.4380   128.2400    39.3870 o          1 IY2      -0.586100
     24 O21         37.5110   131.9460    36.9910 o          1 IY2      -0.647100
     25 C23         44.5070   124.7200    38.4020 ca         1 IY2      -0.065000
     26 C25         43.4290   122.2490    39.1930 ca         1 IY2      -0.158000
     27 C29         36.8210   133.8290    35.1010 c3         1 IY2       0.084300
     28 C30         34.6410   132.6030    34.9250 c3         1 IY2       0.084300
     29 H33         43.5430   127.1840    37.2070 h4         1 IY2       0.230000
     30 H36         39.8690   130.4050    36.8290 ha         1 IY2       0.144000
     31 H37         41.5070   123.2190    39.0920 ha         1 IY2       0.126000
     32 H40         46.4310   123.7280    38.5210 ha         1 IY2       0.130500
     33 H42         32.5770   129.0870    40.0450 h1         1 IY2       0.071700
     34 H41         33.7560   127.9480    39.3360 h1         1 IY2       0.071700
     35 H43         34.2190   128.9650    40.7360 h1         1 IY2       0.071700
     36 H31         38.3670   126.9340    38.9560 ha         1 IY2       0.171000
     37 H32         33.5050   132.5760    37.2620 h4         1 IY2       0.046100
     38 H34         37.7050   130.3350    37.4650 hn         1 IY2       0.377500
     39 H35         42.1750   129.3290    36.6200 h4         1 IY2       0.145000
     40 H38         44.9520   125.6690    38.1140 ha         1 IY2       0.126000
     41 H39         43.0150   121.2930    39.5020 ha         1 IY2       0.130500
     42 H45         36.2820   134.5640    34.4890 h1         1 IY2       0.047200
     43 H46         37.3710   134.3650    35.8860 h1         1 IY2       0.047200
     44 H44         37.5340   133.2860    34.4670 h1         1 IY2       0.047200
     45 H48         34.8450   132.7510    33.8560 h1         1 IY2       0.047200
     46 H47         34.3080   131.5670    35.0620 h1         1 IY2       0.047200
     47 H49         33.8430   133.2950    35.2230 h1         1 IY2       0.047200
     48 C7          36.3160   132.0230    36.7550 c          1 IY2       0.660700
     49 F27         45.6290   121.3380    39.2560 f          1 IY2      -0.181000
@<TRIPOS>BOND
     1     1    10 1   
     2     1    19 1   
     3     1    23 2   
     4     2     3 2   
     5     2    12 1   
     6     2    21 1   
     7     3    13 1   
     8     3    29 1   
     9     4    18 1   
    10     4    20 2   
    11     4    30 1   
    12     5    21 ar  
    13     5    26 ar  
    14     5    31 1   
    15     6     7 ar  
    16     6    26 ar  
    17     6    49 1   
    18     7    25 ar  
    19     7    32 1   
    20     8    15 1   
    21     8    33 1   
    22     8    34 1   
    23     8    35 1   
    24     9    10 2   
    25     9    17 1   
    26     9    48 1   
    27    10    15 1   
    28    11    12 2   
    29    11    13 1   
    30    11    14 1   
    31    13    20 1   
    32    14    18 2   
    33    14    36 1   
    34    15    16 1   
    35    16    17 2   
    36    17    37 1   
    37    18    19 1   
    38    19    38 1   
    39    20    39 1   
    40    21    25 ar  
    41    22    27 1   
    42    22    28 1   
    43    22    48 1   
    44    24    48 2   
    45    25    40 1   
    46    26    41 1   
    47    27    42 1   
    48    27    43 1   
    49    27    44 1   
    50    28    45 1   
    51    28    46 1   
    52    28    47 1   
@<TRIPOS>SUBSTRUCTURE
     1 IY2         1 TEMP              0 ****  ****    0 ROOT
