@<TRIPOS>MOLECULE
IY2
   49    52     1     0     0
SMALL
bcc


@<TRIPOS>ATOM
      1 C5          36.5730   129.0770    38.1860 c          1 IY2       0.699700
      2 C8          42.2320   125.8010    38.2720 cc         1 IY2       0.128400
      3 C13         42.6510   127.0070    37.7610 cd         1 IY2      -0.224100
      4 C17         40.1220   129.6380    37.4150 cc         1 IY2      -0.187000
      5 C22         42.4700   123.4970    39.1540 ca         1 IY2      -0.083000
      6 C24         44.5660   122.3680    39.1180 ca         1 IY2       0.136900
      7 C26         45.1690   123.4510    38.5060 ca         1 IY2      -0.176000
      8 C28         33.9650   128.7370    39.7100 c3         1 IY2       0.040600
      9 C1          35.3030   131.3010    37.5270 cc         1 IY2      -0.320900
     10 C2          35.4770   130.0840    38.1820 cd         1 IY2      -0.104900
     11 C3          40.4810   127.0280    38.2080 cd         1 IY2      -0.000300
     12 N4          40.8980   125.8230    38.5410 nc         1 IY2      -0.297600
     13 N6          41.5280   127.7900    37.7240 na         1 IY2       0.020700
     14 C9          39.1920   127.5900    38.2970 cd         1 IY2      -0.137000
     15 N10         34.3320   129.8560    38.8600 na         1 IY2       0.158400
     16 N11         33.4550   130.8370    38.7100 nd         1 IY2      -0.510800
     17 C12         34.0160   131.7100    37.9020 cc         1 IY2       0.327200
     18 C14         39.0070   128.8930    37.9100 cc         1 IY2       0.078600
     19 N15         37.8050   129.5890    37.9790 ns         1 IY2      -0.463100
     20 C16         41.3500   129.0800    37.3310 cd         1 IY2      -0.059300
     21 C18         43.0440   124.6140    38.5450 ca         1 IY2      -0.030800
     22 N19         35.8370   132.7630    35.6760 n          1 IY2      -0.453800
     23 O20         36.3330   127.8970    38.3750 o          1 IY2      -0.586100
     24 O21         37.4570   132.1570    37.1160 o          1 IY2      -0.647100
     25 C23         44.4010   124.5690    38.2240 ca         1 IY2      -0.083000
     26 C25         43.2240   122.3710    39.4440 ca         1 IY2      -0.176000
     27 C29         36.7200   133.7040    35.0140 c3         1 IY2       0.084300
     28 C30         34.5850   132.5100    34.9870 c3         1 IY2       0.084300
     29 H33         43.6090   127.3760    37.4380 h4         1 IY2       0.180000
     30 H36         39.9960   130.6640    37.0950 ha         1 IY2       0.162000
     31 H37         41.4190   123.5080    39.4080 ha         1 IY2       0.144000
     32 H40         46.2210   123.4240    38.2540 ha         1 IY2       0.148500
     33 H42         33.0850   129.0420    40.2660 h1         1 IY2       0.071700
     34 H41         33.7310   127.8570    39.1180 h1         1 IY2       0.071700
     35 H43         34.7640   128.5020    40.4060 h1         1 IY2       0.071700
     36 H31         38.4000   126.9730    38.6860 ha         1 IY2       0.189000
     37 H32         33.4990   132.6180    37.6320 h4         1 IY2       0.046100
     38 H34         37.8520   130.5990    37.7980 hn         1 IY2       0.377500
     39 H35         42.2180   129.6060    36.9610 h4         1 IY2       0.163000
     40 H38         44.8800   125.4140    37.7460 ha         1 IY2       0.144000
     41 H39         42.7720   121.5100    39.9200 ha         1 IY2       0.148500
     42 H45         36.1180   134.5070    34.5890 h1         1 IY2       0.047200
     43 H46         37.4250   134.1380    35.7150 h1         1 IY2       0.047200
     44 H44         37.2760   133.2270    34.2040 h1         1 IY2       0.047200
     45 H48         34.7830   132.4280    33.9180 h1         1 IY2       0.047200
     46 H47         34.1330   131.5770    35.3100 h1         1 IY2       0.047200
     47 H49         33.8730   133.3220    35.1410 h1         1 IY2       0.047200
     48 C7          36.2790   132.0880    36.7430 c          1 IY2       0.727700
     49 F27         45.3050   121.2830    39.4000 f          1 IY2      -0.145900
@<TRIPOS>BOND
     1     1    10 1   
     2     1    19 1   
     3     1    23 2   
     4     2     3 2   
     5     2    12 1   
     6     2    21 1   
     7     3    13 1   
     8     3    29 1   
     9     4    18 1   
    10     4    20 2   
    11     4    30 1   
    12     5    21 ar  
    13     5    26 ar  
    14     5    31 1   
    15     6     7 ar  
    16     6    26 ar  
    17     6    49 1   
    18     7    25 ar  
    19     7    32 1   
    20     8    15 1   
    21     8    33 1   
    22     8    34 1   
    23     8    35 1   
    24     9    10 2   
    25     9    17 1   
    26     9    48 1   
    27    10    15 1   
    28    11    12 2   
    29    11    13 1   
    30    11    14 1   
    31    13    20 1   
    32    14    18 2   
    33    14    36 1   
    34    15    16 1   
    35    16    17 2   
    36    17    37 1   
    37    18    19 1   
    38    19    38 1   
    39    20    39 1   
    40    21    25 ar  
    41    22    27 1   
    42    22    28 1   
    43    22    48 1   
    44    24    48 2   
    45    25    40 1   
    46    26    41 1   
    47    27    42 1   
    48    27    43 1   
    49    27    44 1   
    50    28    45 1   
    51    28    46 1   
    52    28    47 1   
@<TRIPOS>SUBSTRUCTURE
     1 IY2         1 TEMP              0 ****  ****    0 ROOT
