@<TRIPOS>MOLECULE
IY3
   92    92     1     0     0
SMALL
No Charge or Current Charge


@<TRIPOS>ATOM
      1 N1         -16.0460    13.2310   -17.9580 nt         1 IY3      -0.604000
      2 C8         -12.6350    16.0050   -13.6400 c3         1 IY3       0.033700
      3 N2         -16.1410    15.8540   -20.4650 nu         1 IY3      -0.883400
      4 C9         -12.0620    15.4870   -12.2950 c3         1 IY3      -0.082400
      5 O1         -15.5090    12.8970   -20.0920 o          1 IY3      -0.618100
      6 C5         -15.4430    15.2410   -19.2930 c3         1 IY3       0.145500
      7 C6         -15.6620    13.6870   -19.1710 c          1 IY3       0.577100
      8 N3         -17.4730    15.4470   -22.1320 n2         1 IY3      -0.892100
      9 C4         -13.9340    15.5990   -19.3330 c3         1 IY3      -0.078400
     10 C3         -13.1570    15.1410   -18.0730 c3         1 IY3      -0.077400
     11 O3         -16.4450    15.2280   -15.8500 o          1 IY3      -0.617100
     12 C2         -11.6470    15.4760   -18.1140 c3         1 IY3      -0.094400
     13 N4         -18.1680    15.9270   -20.0700 nv         1 IY3      -1.076200
     14 N          -11.2510    15.5450   -15.6380 ns         1 IY3      -0.493900
     15 C          -12.2550    15.0700   -14.8190 c          1 IY3       0.584100
     16 O          -12.8130    13.9990   -15.0240 o          1 IY3      -0.608100
     17 C11        -11.6980    17.7740   -11.1080 c3         1 IY3      -0.083400
     18 C12        -11.9610    18.6000    -9.8330 c3         1 IY3       0.150800
     19 C13        -14.8100    17.3060   -13.7380 c          1 IY3       0.600100
     20 C14        -16.3640    17.1920   -13.7500 c3         1 IY3       0.032700
     21 C15        -17.0130    18.0460   -12.6310 c3         1 IY3      -0.089400
     22 C16        -18.5590    18.1050   -12.7040 c3         1 IY3      -0.076400
     23 C17        -19.1820    19.0130   -11.6210 c3         1 IY3      -0.080400
     24 C18        -20.7220    19.0650   -11.6990 c3         1 IY3       0.150800
     25 C20        -17.8540    13.7320   -14.5770 c3         1 IY3      -0.109100
     26 C21        -19.2230    13.9780   -15.2060 ca         1 IY3      -0.097300
     27 C22        -19.4780    13.5800   -16.5330 ca         1 IY3      -0.070000
     28 C23        -20.7130    13.8720   -17.1510 ca         1 IY3      -0.074300
     29 C24        -21.0100    13.4580   -18.5940 c3         1 IY3       0.198100
     30 C27        -21.7030    14.5480   -16.4110 ca         1 IY3      -0.112000
     31 C28        -21.4600    14.9350   -15.0820 ca         1 IY3      -0.109000
     32 C29        -20.2220    14.6540   -14.4820 ca         1 IY3      -0.112000
     33 N5         -11.3040    19.9170    -9.8940 n8         1 IY3      -0.995200
     34 N6         -14.1080    16.1290   -13.5800 ns         1 IY3      -0.483900
     35 N7         -21.2870    19.9400   -10.6560 n8         1 IY3      -0.994200
     36 N8         -16.8520    15.7930   -13.6850 ns         1 IY3      -0.510900
     37 N9         -19.8110    13.3640   -19.4500 n8         1 IY3      -1.009200
     38 H1         -16.2000    12.2430   -17.8260 hn         1 IY3       0.325500
     39 H2         -16.1730    13.8840   -17.1920 hn         1 IY3       0.325500
     40 H3         -12.1960    16.9870   -13.8540 h1         1 IY3       0.079700
     41 H4         -15.5520    16.0100   -21.2740 hn         1 IY3       0.493000
     42 H5         -12.4640    14.4840   -12.1050 hc         1 IY3       0.059200
     43 H6         -10.9750    15.3680   -12.3940 hc         1 IY3       0.059200
     44 H7         -10.9580    13.8430   -16.8440 h1         1 IY3       0.055700
     45 H8          -9.7770    15.1460   -17.0630 h1         1 IY3       0.055700
     46 H9         -15.8600    15.6820   -18.3770 h1         1 IY3       0.074700
     47 H10        -18.4840    15.4360   -22.3000 hn         1 IY3       0.374400
     48 H11        -13.4780    15.1460   -20.2220 hc         1 IY3       0.052700
     49 H12        -13.8250    16.6860   -19.4360 hc         1 IY3       0.052700
     50 H13        -13.6140    15.6150   -17.1960 hc         1 IY3       0.057700
     51 H14        -13.2660    14.0570   -17.9470 hc         1 IY3       0.057700
     52 H15        -11.2150    15.0540   -19.0300 hc         1 IY3       0.044200
     53 H16        -11.5150    16.5630   -18.1760 hc         1 IY3       0.044200
     54 H17        -17.6210    16.3710   -19.3500 hn         1 IY3       0.453000
     55 H18        -18.7820    16.5840   -20.5270 hn         1 IY3       0.453000
     56 H19        -10.8380    16.4360   -15.3850 hn         1 IY3       0.317500
     57 H20        -13.4430    16.4900   -10.9400 hc         1 IY3       0.038200
     58 H21        -12.0020    15.8510   -10.1660 hc         1 IY3       0.038200
     59 H22        -10.6160    17.6550   -11.2470 hc         1 IY3       0.050200
     60 H23        -12.0750    18.3310   -11.9740 hc         1 IY3       0.050200
     61 H24        -13.0420    18.7520    -9.7070 h1         1 IY3       0.024200
     62 H25        -11.5810    18.0580    -8.9550 h1         1 IY3       0.024200
     63 H26        -16.6770    17.6100   -14.7160 h1         1 IY3       0.093700
     64 H27        -16.7070    17.6530   -11.6530 hc         1 IY3       0.061700
     65 H28        -16.6220    19.0690   -12.6940 hc         1 IY3       0.061700
     66 H29        -18.8580    18.4710   -13.6950 hc         1 IY3       0.039700
     67 H30        -18.9730    17.0960   -12.5990 hc         1 IY3       0.039700
     68 H31        -18.8810    18.6490   -10.6310 hc         1 IY3       0.049700
     69 H32        -18.7810    20.0280   -11.7270 hc         1 IY3       0.049700
     70 H33        -21.0300    19.4460   -12.6820 h1         1 IY3       0.025700
     71 H34        -21.1340    18.0540   -11.5720 h1         1 IY3       0.025700
     72 H35        -17.9770    13.5320   -13.5060 hc         1 IY3       0.072200
     73 H36        -17.3710    12.8720   -15.0540 hc         1 IY3       0.072200
     74 H37        -18.7080    13.0530   -17.0900 ha         1 IY3       0.139000
     75 H38        -21.6940    14.1900   -19.0460 h1         1 IY3       0.031700
     76 H39        -21.5130    12.4810   -18.5920 h1         1 IY3       0.031700
     77 H40        -22.6640    14.7750   -16.8670 ha         1 IY3       0.112000
     78 H41        -22.2300    15.4590   -14.5200 ha         1 IY3       0.113000
     79 H42        -20.0390    14.9710   -13.4580 ha         1 IY3       0.103000
     80 H43        -11.4540    20.4070    -9.0030 hn         1 IY3       0.393000
     81 H44        -10.2860    19.7810    -9.9240 hn         1 IY3       0.393000
     82 H46        -14.6640    15.2850   -13.5100 hn         1 IY3       0.325500
     83 H47        -22.3130    19.8980   -10.7050 hn         1 IY3       0.393000
     84 H48        -21.0750    19.5410    -9.7340 hn         1 IY3       0.393000
     85 H50        -17.3240    15.4900   -12.8390 hn         1 IY3       0.320500
     86 H51        -20.1060    13.1880   -20.4160 hn         1 IY3       0.413000
     87 H52        -19.3570    14.2910   -19.5040 hn         1 IY3       0.413000
     88 C7         -17.3070    15.4300   -20.9060 c2         1 IY3       0.795100
     89 C1         -10.8430    14.9330   -16.9070 c3         1 IY3       0.101000
     90 C10        -12.3590    16.3770   -11.0610 c3         1 IY3      -0.071400
     91 C19        -16.9780    14.9690   -14.7820 c          1 IY3       0.604100
     92 O4         -14.2380    18.3780   -13.8820 o          1 IY3      -0.601100
@<TRIPOS>BOND
     1     1     7 1   
     2     1    38 1   
     3     1    39 1   
     4     2     4 1   
     5     2    15 1   
     6     2    34 1   
     7     2    40 1   
     8     3     6 1   
     9     3    41 1   
    10     3    88 1   
    11     4    42 1   
    12     4    43 1   
    13     4    90 1   
    14     5     7 2   
    15     6     7 1   
    16     6     9 1   
    17     6    46 1   
    18     8    47 1   
    19     8    88 2   
    20     9    10 1   
    21     9    48 1   
    22     9    49 1   
    23    10    12 1   
    24    10    50 1   
    25    10    51 1   
    26    11    91 2   
    27    12    52 1   
    28    12    53 1   
    29    12    89 1   
    30    13    54 1   
    31    13    55 1   
    32    13    88 1   
    33    14    15 1   
    34    14    56 1   
    35    14    89 1   
    36    15    16 2   
    37    17    18 1   
    38    17    59 1   
    39    17    60 1   
    40    17    90 1   
    41    18    33 1   
    42    18    61 1   
    43    18    62 1   
    44    19    20 1   
    45    19    34 1   
    46    19    92 2   
    47    20    21 1   
    48    20    36 1   
    49    20    63 1   
    50    21    22 1   
    51    21    64 1   
    52    21    65 1   
    53    22    23 1   
    54    22    66 1   
    55    22    67 1   
    56    23    24 1   
    57    23    68 1   
    58    23    69 1   
    59    24    35 1   
    60    24    70 1   
    61    24    71 1   
    62    25    26 1   
    63    25    72 1   
    64    25    73 1   
    65    25    91 1   
    66    26    27 ar  
    67    26    32 ar  
    68    27    28 ar  
    69    27    74 1   
    70    28    29 1   
    71    28    30 ar  
    72    29    37 1   
    73    29    75 1   
    74    29    76 1   
    75    30    31 ar  
    76    30    77 1   
    77    31    32 ar  
    78    31    78 1   
    79    32    79 1   
    80    33    80 1   
    81    33    81 1   
    82    34    82 1   
    83    35    83 1   
    84    35    84 1   
    85    36    85 1   
    86    36    91 1   
    87    37    86 1   
    88    37    87 1   
    89    44    89 1   
    90    45    89 1   
    91    57    90 1   
    92    58    90 1   
@<TRIPOS>SUBSTRUCTURE
     1 IY3         1 TEMP              0 ****  ****    0 ROOT
