@<TRIPOS>MOLECULE
IY3
   92    92     1     0     0
SMALL
abcg2


@<TRIPOS>ATOM
      1 N1         -15.9740    13.2780   -18.1640 nt         1 IY3      -0.604000
      2 C8         -12.7440    16.0570   -13.5540 c3         1 IY3       0.033700
      3 N2         -16.2270    15.9760   -20.4850 nu         1 IY3      -0.883400
      4 C9         -12.2200    15.4090   -12.2750 c3         1 IY3      -0.082400
      5 O1         -15.6490    13.2030   -20.4000 o          1 IY3      -0.618100
      6 C5         -15.5870    15.3600   -19.3470 c3         1 IY3       0.145500
      7 C6         -15.7530    13.8350   -19.3590 c          1 IY3       0.577100
      8 N3         -17.9600    15.9700   -21.9820 n2         1 IY3      -0.892100
      9 C4         -14.0990    15.7260   -19.3640 c3         1 IY3      -0.078400
     10 C3         -13.3470    15.2970   -18.1120 c3         1 IY3      -0.077400
     11 O3         -16.3530    15.1300   -15.8420 o          1 IY3      -0.617100
     12 C2         -11.8940    15.7510   -18.1280 c3         1 IY3      -0.094400
     13 N4         -18.3590    15.5000   -19.6950 nv         1 IY3      -1.076200
     14 N          -11.5740    15.8650   -15.6670 ns         1 IY3      -0.493900
     15 C          -12.3460    15.2260   -14.7770 c          1 IY3       0.584100
     16 O          -12.7200    14.0670   -14.8930 o          1 IY3      -0.608100
     17 C11        -12.1840    17.6070   -10.9530 c3         1 IY3      -0.083400
     18 C12        -12.4760    18.2520    -9.6070 c3         1 IY3       0.150800
     19 C13        -14.8410    17.1510   -14.1640 c          1 IY3       0.600100
     20 C14        -16.3570    17.1730   -13.9880 c3         1 IY3       0.032700
     21 C15        -16.7250    18.0730   -12.8060 c3         1 IY3      -0.089400
     22 C16        -18.2140    18.3930   -12.7390 c3         1 IY3      -0.076400
     23 C17        -18.5570    19.2910   -11.5600 c3         1 IY3      -0.080400
     24 C18        -20.0400    19.6220   -11.4940 c3         1 IY3       0.150800
     25 C20        -17.8200    13.7320   -14.5500 c3         1 IY3      -0.109100
     26 C21        -19.1070    13.9150   -15.3180 ca         1 IY3      -0.097300
     27 C22        -19.2720    13.3210   -16.5650 ca         1 IY3      -0.070000
     28 C23        -20.4180    13.5360   -17.3230 ca         1 IY3      -0.074300
     29 C24        -20.6190    12.8820   -18.6690 c3         1 IY3       0.198100
     30 C27        -21.4090    14.3690   -16.8090 ca         1 IY3      -0.112000
     31 C28        -21.2620    14.9570   -15.5610 ca         1 IY3      -0.109000
     32 C29        -20.1130    14.7340   -14.8150 ca         1 IY3      -0.112000
     33 N5         -12.0900    19.6550    -9.6030 n8         1 IY3      -0.995200
     34 N6         -14.1820    16.1830   -13.5120 ns         1 IY3      -0.483900
     35 N7         -20.3320    20.4880   -10.3610 n8         1 IY3      -0.994200
     36 N8         -16.9320    15.8600   -13.8040 ns         1 IY3      -0.510900
     37 N9         -19.3870    12.3700   -19.2370 n8         1 IY3      -1.009200
     38 H1         -16.0710    12.2790   -18.0850 hn         1 IY3       0.325500
     39 H2         -16.1160    13.8350   -17.3290 hn         1 IY3       0.325500
     40 H3         -12.3300    17.0620   -13.6410 h1         1 IY3       0.079700
     41 H4         -15.6650    16.0170   -21.3220 hn         1 IY3       0.493000
     42 H5         -12.5750    14.3770   -12.2220 hc         1 IY3       0.059200
     43 H6         -11.1300    15.3590   -12.3500 hc         1 IY3       0.059200
     44 H7         -11.1300    14.2090   -16.8230 h1         1 IY3       0.055700
     45 H8         -10.0510    15.5760   -17.0310 h1         1 IY3       0.055700
     46 H9         -16.0080    15.7720   -18.4250 h1         1 IY3       0.074700
     47 H10        -18.9700    15.9110   -22.0400 hn         1 IY3       0.374400
     48 H11        -13.6310    15.2910   -20.2540 hc         1 IY3       0.052700
     49 H12        -14.0310    16.8120   -19.4730 hc         1 IY3       0.052700
     50 H13        -13.8560    15.7100   -17.2370 hc         1 IY3       0.057700
     51 H14        -13.3780    14.2100   -18.0030 hc         1 IY3       0.057700
     52 H15        -11.3950    15.3550   -19.0180 hc         1 IY3       0.044200
     53 H16        -11.8420    16.8410   -18.2090 hc         1 IY3       0.044200
     54 H17        -18.0690    15.8190   -18.7830 hn         1 IY3       0.453000
     55 H18        -19.3460    15.6440   -19.8400 hn         1 IY3       0.453000
     56 H19        -11.3600    16.8350   -15.5000 hn         1 IY3       0.317500
     57 H20        -13.6950    16.0820   -10.8500 hc         1 IY3       0.038200
     58 H21        -12.1650    15.6130   -10.1550 hc         1 IY3       0.038200
     59 H22        -11.1110    17.6800   -11.1660 hc         1 IY3       0.050200
     60 H23        -12.6950    18.1830   -11.7290 hc         1 IY3       0.050200
     61 H24        -13.5510    18.1940    -9.4120 h1         1 IY3       0.024200
     62 H25        -11.9900    17.6600    -8.8160 h1         1 IY3       0.024200
     63 H26        -16.7570    17.6190   -14.9040 h1         1 IY3       0.093700
     64 H27        -16.3940    17.6000   -11.8750 hc         1 IY3       0.061700
     65 H28        -16.1630    19.0040   -12.8990 hc         1 IY3       0.061700
     66 H29        -18.5160    18.8780   -13.6730 hc         1 IY3       0.039700
     67 H30        -18.8030    17.4730   -12.6710 hc         1 IY3       0.039700
     68 H31        -18.2530    18.7990   -10.6290 hc         1 IY3       0.049700
     69 H32        -17.9840    20.2210   -11.6210 hc         1 IY3       0.049700
     70 H33        -20.3280    20.1470   -12.4090 h1         1 IY3       0.025700
     71 H34        -20.6130    18.6830   -11.4870 h1         1 IY3       0.025700
     72 H35        -18.0230    13.5960   -13.4850 hc         1 IY3       0.072200
     73 H36        -17.2870    12.8490   -14.9020 hc         1 IY3       0.072200
     74 H37        -18.4930    12.6790   -16.9570 ha         1 IY3       0.139000
     75 H38        -21.1440    13.5960   -19.3180 h1         1 IY3       0.031700
     76 H39        -21.3080    12.0410   -18.5400 h1         1 IY3       0.031700
     77 H40        -22.3050    14.5590   -17.3890 ha         1 IY3       0.112000
     78 H41        -22.0420    15.5980   -15.1710 ha         1 IY3       0.113000
     79 H42        -20.0000    15.2030   -13.8440 ha         1 IY3       0.103000
     80 H43        -12.3190    20.0660    -8.7070 hn         1 IY3       0.393000
     81 H44        -11.0820    19.7230    -9.6820 hn         1 IY3       0.393000
     82 H46        -14.7110    15.4580   -13.0500 hn         1 IY3       0.325500
     83 H47        -21.3160    20.7250   -10.3620 hn         1 IY3       0.393000
     84 H48        -20.1780    19.9740    -9.5020 hn         1 IY3       0.393000
     85 H50        -17.4430    15.6700   -12.9560 hn         1 IY3       0.320500
     86 H51        -19.6010    11.8460   -20.0750 hn         1 IY3       0.413000
     87 H52        -18.8090    13.1520   -19.5280 hn         1 IY3       0.413000
     88 C7         -17.5620    15.8250   -20.7730 c2         1 IY3       0.795100
     89 C1         -11.0980    15.2950   -16.9100 c3         1 IY3       0.101000
     90 C10        -12.6130    16.1470   -10.9980 c3         1 IY3      -0.071400
     91 C19        -16.9560    14.9500   -14.7890 c          1 IY3       0.604100
     92 O4         -14.2880    18.0270   -14.8110 o          1 IY3      -0.601100
@<TRIPOS>BOND
     1     1     7 1   
     2     1    38 1   
     3     1    39 1   
     4     2     4 1   
     5     2    15 1   
     6     2    34 1   
     7     2    40 1   
     8     3     6 1   
     9     3    41 1   
    10     3    88 1   
    11     4    42 1   
    12     4    43 1   
    13     4    90 1   
    14     5     7 2   
    15     6     7 1   
    16     6     9 1   
    17     6    46 1   
    18     8    47 1   
    19     8    88 2   
    20     9    10 1   
    21     9    48 1   
    22     9    49 1   
    23    10    12 1   
    24    10    50 1   
    25    10    51 1   
    26    11    91 2   
    27    12    52 1   
    28    12    53 1   
    29    12    89 1   
    30    13    54 1   
    31    13    55 1   
    32    13    88 1   
    33    14    15 1   
    34    14    56 1   
    35    14    89 1   
    36    15    16 2   
    37    17    18 1   
    38    17    59 1   
    39    17    60 1   
    40    17    90 1   
    41    18    33 1   
    42    18    61 1   
    43    18    62 1   
    44    19    20 1   
    45    19    34 1   
    46    19    92 2   
    47    20    21 1   
    48    20    36 1   
    49    20    63 1   
    50    21    22 1   
    51    21    64 1   
    52    21    65 1   
    53    22    23 1   
    54    22    66 1   
    55    22    67 1   
    56    23    24 1   
    57    23    68 1   
    58    23    69 1   
    59    24    35 1   
    60    24    70 1   
    61    24    71 1   
    62    25    26 1   
    63    25    72 1   
    64    25    73 1   
    65    25    91 1   
    66    26    27 ar  
    67    26    32 ar  
    68    27    28 ar  
    69    27    74 1   
    70    28    29 1   
    71    28    30 ar  
    72    29    37 1   
    73    29    75 1   
    74    29    76 1   
    75    30    31 ar  
    76    30    77 1   
    77    31    32 ar  
    78    31    78 1   
    79    32    79 1   
    80    33    80 1   
    81    33    81 1   
    82    34    82 1   
    83    35    83 1   
    84    35    84 1   
    85    36    85 1   
    86    36    91 1   
    87    37    86 1   
    88    37    87 1   
    89    44    89 1   
    90    45    89 1   
    91    57    90 1   
    92    58    90 1   
@<TRIPOS>SUBSTRUCTURE
     1 IY3         1 TEMP              0 ****  ****    0 ROOT
