@<TRIPOS>MOLECULE
IY5
   31    33     1     0     0
SMALL
No Charge or Current Charge


@<TRIPOS>ATOM
      1 CAN         -1.2280    -1.0190     0.3830 ca         1 IY5      -0.084000
      2 CAO         -2.6280    -1.1350     0.3520 ca         1 IY5      -0.064000
      3 CAP         -3.4300    -0.0460    -0.0460 ca         1 IY5      -0.178300
      4 CAS         -4.9590    -0.1670    -0.0720 c3         1 IY5       0.357300
      5 FAU         -5.5010     0.2020     1.1100 f          1 IY5      -0.110000
      6 FAV         -5.5210     0.6130    -1.0250 f          1 IY5      -0.110000
      7 FAT         -5.3720    -1.4320    -0.3190 f          1 IY5      -0.110000
      8 CAQ         -2.8000     1.1630    -0.4060 ca         1 IY5      -0.064000
      9 CAR         -1.3990     1.2800    -0.3730 ca         1 IY5      -0.084000
     10 CAM         -0.5900     0.1950     0.0420 ca         1 IY5      -0.116900
     11 CAI          0.8810     0.2910     0.0430 cc         1 IY5       0.554500
     12 NAH          1.6270    -0.8020    -0.1520 nd         1 IY5      -0.648100
     13 CAG          3.0250    -0.5860    -0.1200 ca         1 IY5       0.083400
     14 CAB          3.8720    -1.6980    -0.3330 ca         1 IY5       0.161100
     15 OAA          3.3070    -2.9170    -0.5590 oh         1 IY5      -0.524100
     16 CAC          5.2680    -1.5600    -0.3170 ca         1 IY5      -0.127000
     17 CAD          5.8430    -0.3000    -0.0860 ca         1 IY5      -0.086000
     18 CAE          5.0170     0.8160     0.1280 ca         1 IY5      -0.083000
     19 CAF          3.6110     0.6750     0.1110 ca         1 IY5      -0.152600
     20 CAK          2.7170     1.8380     0.3410 c          1 IY5       0.578600
     21 OAL          3.1100     2.9720     0.5630 o          1 IY5      -0.526000
     22 NAJ          1.4000     1.5370     0.2880 ns         1 IY5      -0.428400
     23 HAN         -0.6390    -1.8800     0.6920 ha         1 IY5       0.132500
     24 HAO         -3.0850    -2.0800     0.6400 ha         1 IY5       0.137000
     25 HAQ         -3.3930     2.0210    -0.7190 ha         1 IY5       0.137000
     26 HAR         -0.9540     2.2210    -0.6880 ha         1 IY5       0.132500
     27 HAJ          0.7680     2.3000     0.4680 hn         1 IY5       0.333500
     28 HAA          2.3370    -2.7470    -0.5250 ho         1 IY5       0.494000
     29 HAC          5.9020    -2.4280    -0.4840 ha         1 IY5       0.134000
     30 HAD          6.9250    -0.1880    -0.0720 ha         1 IY5       0.122000
     31 HAE          5.4700     1.7890     0.3080 ha         1 IY5       0.140000
@<TRIPOS>BOND
     1     1     2 ar  
     2     1    10 ar  
     3     1    23 1   
     4     2     3 ar  
     5     2    24 1   
     6     3     4 1   
     7     3     8 ar  
     8     4     5 1   
     9     4     6 1   
    10     4     7 1   
    11     8     9 ar  
    12     8    25 1   
    13     9    10 ar  
    14     9    26 1   
    15    10    11 1   
    16    11    12 2   
    17    11    22 1   
    18    12    13 1   
    19    13    14 ar  
    20    13    19 ar  
    21    14    15 1   
    22    14    16 ar  
    23    15    28 1   
    24    16    17 ar  
    25    16    29 1   
    26    17    18 ar  
    27    17    30 1   
    28    18    19 ar  
    29    18    31 1   
    30    19    20 1   
    31    20    21 2   
    32    20    22 1   
    33    22    27 1   
@<TRIPOS>SUBSTRUCTURE
     1 IY5         1 TEMP              0 ****  ****    0 ROOT
