@<TRIPOS>MOLECULE
IY5
   31    33     1     0     0
SMALL
abcg2


@<TRIPOS>ATOM
      1 CAN         -1.1690    -0.9930     0.3190 ca         1 IY5      -0.084000
      2 CAO         -2.5430    -1.1460     0.2900 ca         1 IY5      -0.064000
      3 CAP         -3.3540    -0.0750    -0.0710 ca         1 IY5      -0.178300
      4 CAS         -4.8430    -0.2370    -0.0550 c3         1 IY5       0.357300
      5 FAU         -5.3420    -0.0420     1.1740 f          1 IY5      -0.110000
      6 FAV         -5.4570     0.6300    -0.8660 f          1 IY5      -0.110000
      7 FAT         -5.2180    -1.4640    -0.4330 f          1 IY5      -0.110000
      8 CAQ         -2.7840     1.1470    -0.3970 ca         1 IY5      -0.064000
      9 CAR         -1.4080     1.3000    -0.3600 ca         1 IY5      -0.084000
     10 CAM         -0.5890     0.2330     0.0000 ca         1 IY5      -0.116900
     11 CAI          0.8800     0.3580     0.0370 cc         1 IY5       0.554500
     12 NAH          1.6130    -0.6820    -0.1370 nd         1 IY5      -0.648100
     13 CAG          2.9730    -0.5250    -0.1020 ca         1 IY5       0.083400
     14 CAB          3.7500    -1.6870    -0.2900 ca         1 IY5       0.161100
     15 OAA          3.1490    -2.8670    -0.4840 oh         1 IY5      -0.524100
     16 CAC          5.1290    -1.5900    -0.2710 ca         1 IY5      -0.127000
     17 CAD          5.7430    -0.3520    -0.0680 ca         1 IY5      -0.086000
     18 CAE          4.9980     0.7950     0.1170 ca         1 IY5      -0.083000
     19 CAF          3.6060     0.7050     0.0980 ca         1 IY5      -0.152600
     20 CAK          2.7620     1.8770     0.3010 c          1 IY5       0.578600
     21 OAL          3.1600     3.0080     0.5030 o          1 IY5      -0.526000
     22 NAJ          1.4110     1.5950     0.2590 ns         1 IY5      -0.428400
     23 HAN         -0.5450    -1.8290     0.6010 ha         1 IY5       0.132500
     24 HAO         -2.9670    -2.1050     0.5530 ha         1 IY5       0.137000
     25 HAQ         -3.3930     1.9910    -0.6890 ha         1 IY5       0.137000
     26 HAR         -0.9940     2.2580    -0.6450 ha         1 IY5       0.132500
     27 HAJ          0.7910     2.3720     0.4480 hn         1 IY5       0.333500
     28 HAA          2.1890    -2.7210    -0.4660 ho         1 IY5       0.494000
     29 HAC          5.7300    -2.4780    -0.4160 ha         1 IY5       0.134000
     30 HAD          6.8230    -0.3000    -0.0580 ha         1 IY5       0.122000
     31 HAE          5.4810     1.7490     0.2770 ha         1 IY5       0.140000
@<TRIPOS>BOND
     1     1     2 ar  
     2     1    10 ar  
     3     1    23 1   
     4     2     3 ar  
     5     2    24 1   
     6     3     4 1   
     7     3     8 ar  
     8     4     5 1   
     9     4     6 1   
    10     4     7 1   
    11     8     9 ar  
    12     8    25 1   
    13     9    10 ar  
    14     9    26 1   
    15    10    11 1   
    16    11    12 2   
    17    11    22 1   
    18    12    13 1   
    19    13    14 ar  
    20    13    19 ar  
    21    14    15 1   
    22    14    16 ar  
    23    15    28 1   
    24    16    17 ar  
    25    16    29 1   
    26    17    18 ar  
    27    17    30 1   
    28    18    19 ar  
    29    18    31 1   
    30    19    20 1   
    31    20    21 2   
    32    20    22 1   
    33    22    27 1   
@<TRIPOS>SUBSTRUCTURE
     1 IY5         1 TEMP              0 ****  ****    0 ROOT
