@<TRIPOS>MOLECULE
IY6
   50    53     1     0     0
SMALL
bcc


@<TRIPOS>ATOM
      1 C05         94.5680   -11.9010    10.8350 cc         1 IY6       0.444800
      2 C07         92.3680   -13.7690     7.8460 c5         1 IY6       0.245300
      3 C10         94.5720   -14.1820     6.9190 c5         1 IY6       0.245300
      4 C11         97.0700   -11.8050    10.8880 c3         1 IY6       0.042600
      5 C13         93.9780    -7.9450    13.5160 cc         1 IY6      -0.335600
      6 C16         95.2200    -7.4490    12.8410 c3         1 IY6       0.736200
      7 C20         92.3870    -7.8390    15.2780 cd         1 IY6      -0.104300
      8 C22         90.6580    -9.2210    15.3880 cd         1 IY6      -0.107300
      9 C23         90.6790    -8.3290    16.4500 cc         1 IY6       0.055400
     10 C25         89.7340   -10.3160    15.0180 c3         1 IY6      -0.018900
     11 C26         89.6930    -8.2650    17.5640 c3         1 IY6      -0.020900
     12 C27         93.6000    -9.7940    11.7240 c3         1 IY6      -0.129700
     13 C28         94.2910   -11.1200    12.0700 c3         1 IY6      -0.102700
     14 N01         95.7780   -12.1650    10.3530 na         1 IY6      -0.027400
     15 N02         95.6770   -12.8580     9.1930 nc         1 IY6      -0.616800
     16 C03         94.3680   -12.9660     9.0420 cd         1 IY6       0.813900
     17 N04         93.6430   -12.3930    10.0300 nd         1 IY6      -0.757000
     18 N06         93.7990   -13.5900     7.9900 nh         1 IY6      -0.803300
     19 C08         92.2690   -14.8140     6.7390 c5         1 IY6      -0.096400
     20 C09         93.5070   -14.5440     5.8870 c5         1 IY6      -0.096400
     21 C12         93.5460    -7.3520    14.6730 cd         1 IY6       0.036000
     22 C14         93.2230    -9.0310    12.9650 cc         1 IY6       0.426600
     23 N15         92.1380    -9.4770    13.5300 nd         1 IY6      -0.476800
     24 F17         94.9740    -6.9780    11.6100 f          1 IY6      -0.231967
     25 F18         95.8020    -6.4590    13.5200 f          1 IY6      -0.231967
     26 F19         96.1360    -8.4190    12.7050 f          1 IY6      -0.231967
     27 N21         91.7500    -8.8940    14.6540 na         1 IY6       0.206200
     28 N24         91.7370    -7.4900    16.3720 nc         1 IY6      -0.244600
     29 H1          91.9080   -14.1060     8.7770 h1         1 IY6       0.047950
     30 H2          91.8710   -12.8350     7.5580 h1         1 IY6       0.047950
     31 H3          95.3130   -13.4820     6.5240 h1         1 IY6       0.047950
     32 H4          95.1160   -15.0700     7.2610 h1         1 IY6       0.047950
     33 H5          97.8310   -12.1790    10.2110 h1         1 IY6       0.058033
     34 H6          97.1710   -10.7240    10.9680 h1         1 IY6       0.058033
     35 H7          97.2250   -12.2490    11.8700 h1         1 IY6       0.058033
     36 H8          90.2440   -11.2810    14.9920 hc         1 IY6       0.056367
     37 H9          88.9270   -10.3840    15.7450 hc         1 IY6       0.056367
     38 H10         89.2900   -10.1550    14.0350 hc         1 IY6       0.056367
     39 H11         89.8900    -7.4020    18.1980 hc         1 IY6       0.050700
     40 H12         88.6720    -8.1860    17.1910 hc         1 IY6       0.050700
     41 H13         89.7400    -9.1580    18.1890 hc         1 IY6       0.050700
     42 H14         92.6820   -10.0140    11.1790 hc         1 IY6       0.083200
     43 H15         94.2250    -9.2140    11.0490 hc         1 IY6       0.083200
     44 H16         93.6380   -11.7070    12.7190 hc         1 IY6       0.068700
     45 H17         95.2110   -10.9410    12.6260 hc         1 IY6       0.068700
     46 H18         92.3190   -15.8180     7.1680 hc         1 IY6       0.051450
     47 H19         91.3380   -14.7390     6.1800 hc         1 IY6       0.051450
     48 H20         93.8000   -15.3950     5.2740 hc         1 IY6       0.051450
     49 H21         93.3290   -13.6990     5.2190 hc         1 IY6       0.051450
     50 H22         94.0630    -6.5240    15.1390 ha         1 IY6       0.181000
@<TRIPOS>BOND
     1     1    13 1   
     2     1    14 1   
     3     1    17 2   
     4     2    18 1   
     5     2    19 1   
     6     2    29 1   
     7     2    30 1   
     8     3    18 1   
     9     3    20 1   
    10     3    31 1   
    11     3    32 1   
    12     4    14 1   
    13     4    33 1   
    14     4    34 1   
    15     4    35 1   
    16     5     6 1   
    17     5    21 2   
    18     5    22 1   
    19     6    24 1   
    20     6    25 1   
    21     6    26 1   
    22     7    21 1   
    23     7    27 1   
    24     7    28 2   
    25     8     9 2   
    26     8    10 1   
    27     8    27 1   
    28     9    11 1   
    29     9    28 1   
    30    10    36 1   
    31    10    37 1   
    32    10    38 1   
    33    11    39 1   
    34    11    40 1   
    35    11    41 1   
    36    12    13 1   
    37    12    22 1   
    38    12    42 1   
    39    12    43 1   
    40    13    44 1   
    41    13    45 1   
    42    14    15 1   
    43    15    16 2   
    44    16    17 1   
    45    16    18 1   
    46    19    20 1   
    47    19    46 1   
    48    19    47 1   
    49    20    48 1   
    50    20    49 1   
    51    21    50 1   
    52    22    23 2   
    53    23    27 1   
@<TRIPOS>SUBSTRUCTURE
     1 IY6         1 TEMP              0 ****  ****    0 ROOT
