@<TRIPOS>MOLECULE
IY6
   50    53     1     0     0
SMALL
No Charge or Current Charge


@<TRIPOS>ATOM
      1 C05         94.4460   -11.8730    10.6730 cc         1 IY6       0.444800
      2 C07         92.5050   -14.3500     7.9590 c5         1 IY6       0.245300
      3 C10         94.6010   -14.1090     6.6630 c5         1 IY6       0.245300
      4 C11         96.8440   -10.9990    10.3820 c3         1 IY6       0.071900
      5 C13         94.2160    -8.2240    13.8570 cc         1 IY6      -0.270300
      6 C16         95.5950    -7.9210    13.2880 c3         1 IY6       0.372300
      7 C20         92.5040    -8.0160    15.4900 cd         1 IY6      -0.155000
      8 C22         90.4940    -9.0170    15.4000 cd         1 IY6      -0.107300
      9 C23         90.6440    -8.2420    16.5340 cc         1 IY6       0.055400
     10 C25         89.3430    -9.8630    14.9110 c3         1 IY6      -0.018900
     11 C26         89.6390    -8.0310    17.6340 c3         1 IY6      -0.020900
     12 C27         93.6260    -9.7520    11.8410 c3         1 IY6      -0.129700
     13 C28         94.1120   -11.2190    11.9890 c3         1 IY6      -0.102700
     14 N01         95.6440   -11.7590     9.9900 na         1 IY6      -0.056700
     15 N02         95.6050   -12.4650     8.8280 nc         1 IY6      -0.616800
     16 C03         94.3860   -12.9580     8.8870 cd         1 IY6       0.813900
     17 N04         93.6280   -12.6370     9.9770 nd         1 IY6      -0.757000
     18 N06         93.8640   -13.7650     7.9000 nh         1 IY6      -0.803300
     19 C08         92.5800   -15.3980     6.8190 c5         1 IY6      -0.096400
     20 C09         93.4540   -14.6550     5.7740 c5         1 IY6      -0.096400
     21 C12         93.8070    -7.6690    15.0580 cd         1 IY6       0.054000
     22 C14         93.2610    -9.0990    13.1620 cc         1 IY6       0.361300
     23 N15         92.0280    -9.4260    13.5710 nd         1 IY6      -0.476800
     24 F17         95.5170    -7.1960    12.1500 f          1 IY6      -0.110667
     25 F18         96.3580    -7.2030    14.1430 f          1 IY6      -0.110667
     26 F19         96.2960    -9.0430    13.0140 f          1 IY6      -0.110667
     27 N21         91.7000    -8.8430    14.7680 na         1 IY6       0.256900
     28 N24         91.8780    -7.6280    16.5870 nc         1 IY6      -0.244600
     29 H1          92.2830   -14.8180     8.9280 h1         1 IY6       0.047950
     30 H2          91.7400   -13.5870     7.7570 h1         1 IY6       0.047950
     31 H3          95.0950   -13.2410     6.2040 h1         1 IY6       0.047950
     32 H4          95.3610   -14.8790     6.8600 h1         1 IY6       0.047950
     33 H5          97.6690   -11.2120     9.6910 h1         1 IY6       0.058033
     34 H6          96.6230    -9.9250    10.3560 h1         1 IY6       0.058033
     35 H7          97.1460   -11.2840    11.3970 h1         1 IY6       0.058033
     36 H8          89.6480   -10.9090    14.7940 hc         1 IY6       0.056367
     37 H9          88.5000    -9.8370    15.6100 hc         1 IY6       0.056367
     38 H10         88.9810    -9.5070    13.9390 hc         1 IY6       0.056367
     39 H11         90.0270    -7.3620    18.4100 hc         1 IY6       0.050700
     40 H12         88.7180    -7.5880    17.2370 hc         1 IY6       0.050700
     41 H13         89.3790    -8.9840    18.1090 hc         1 IY6       0.050700
     42 H14         92.7410    -9.7550    11.1930 hc         1 IY6       0.083200
     43 H15         94.3640    -9.1740    11.2790 hc         1 IY6       0.083200
     44 H16         93.3310   -11.8040    12.4890 hc         1 IY6       0.068700
     45 H17         94.9840   -11.2590    12.6510 hc         1 IY6       0.068700
     46 H18         93.0640   -16.3210     7.1600 hc         1 IY6       0.051450
     47 H19         91.5900   -15.6670     6.4340 hc         1 IY6       0.051450
     48 H20         93.8200   -15.3120     4.9780 hc         1 IY6       0.051450
     49 H21         92.8990   -13.8380     5.2980 hc         1 IY6       0.051450
     50 H22         94.4310    -7.0040    15.6500 ha         1 IY6       0.163000
@<TRIPOS>BOND
     1     1    13 1   
     2     1    14 1   
     3     1    17 2   
     4     2    18 1   
     5     2    19 1   
     6     2    29 1   
     7     2    30 1   
     8     3    18 1   
     9     3    20 1   
    10     3    31 1   
    11     3    32 1   
    12     4    14 1   
    13     4    33 1   
    14     4    34 1   
    15     4    35 1   
    16     5     6 1   
    17     5    21 2   
    18     5    22 1   
    19     6    24 1   
    20     6    25 1   
    21     6    26 1   
    22     7    21 1   
    23     7    27 1   
    24     7    28 2   
    25     8     9 2   
    26     8    10 1   
    27     8    27 1   
    28     9    11 1   
    29     9    28 1   
    30    10    36 1   
    31    10    37 1   
    32    10    38 1   
    33    11    39 1   
    34    11    40 1   
    35    11    41 1   
    36    12    13 1   
    37    12    22 1   
    38    12    42 1   
    39    12    43 1   
    40    13    44 1   
    41    13    45 1   
    42    14    15 1   
    43    15    16 2   
    44    16    17 1   
    45    16    18 1   
    46    19    20 1   
    47    19    46 1   
    48    19    47 1   
    49    20    48 1   
    50    20    49 1   
    51    21    50 1   
    52    22    23 2   
    53    23    27 1   
@<TRIPOS>SUBSTRUCTURE
     1 IY6         1 TEMP              0 ****  ****    0 ROOT
