@<TRIPOS>MOLECULE
IY7
   66    69     1     0     0
SMALL
No Charge or Current Charge


@<TRIPOS>ATOM
      1 C2           0.1970     5.2050     0.1530 ca         1 IY7      -0.132000
      2 C3          -0.6520     4.2300     0.7180 ca         1 IY7      -0.113000
      3 C1           1.5070     4.8640    -0.2340 ca         1 IY7      -0.117000
      4 C4          -0.1930     2.9090     0.8950 ca         1 IY7      -0.057000
      5 C12         -0.9910     0.7420    -1.4750 ca         1 IY7      -0.127000
      6 C13         -2.3820     0.5680    -1.5180 ca         1 IY7      -0.147000
      7 C16         -0.8200    -0.9160     0.3160 ca         1 IY7      -0.109600
      8 C6           1.9470     3.5450    -0.0500 ca         1 IY7      -0.113300
      9 C5           1.1160     2.5840     0.4970 ca         1 IY7      -0.052300
     10 C11         -0.2000     0.0150    -0.5600 ca         1 IY7      -0.092300
     11 C14         -3.0010    -0.3380    -0.6470 ca         1 IY7       0.056100
     12 C15         -2.2180    -1.0970     0.2600 ca         1 IY7       0.061100
     13 C26         -8.8040    -0.7480    -0.6260 c          1 IY7       0.716000
     14 C7           3.3070     2.9930    -0.3880 c5         1 IY7      -0.040100
     15 C21         -4.1800    -2.4100     0.7870 c6         1 IY7       0.116600
     16 C9           1.7840     1.2290     0.5900 c5         1 IY7      -0.031400
     17 C8           3.2980     1.7180     0.5390 c5         1 IY7       0.106700
     18 C22         -5.0110    -1.1610     0.4110 c6         1 IY7       0.126300
     19 C10          1.3100     0.2620    -0.5370 c3         1 IY7       0.006900
     20 C32          5.3900    -1.3700    -0.2910 c3         1 IY7      -0.158400
     21 C24         -6.4690    -1.5090    -0.0070 c3         1 IY7      -0.048400
     22 C33          6.9130    -1.2650    -0.0390 c3         1 IY7      -0.066400
     23 C34          7.7360    -2.2740    -0.8710 c3         1 IY7      -0.080400
     24 C35          9.2530    -2.1640    -0.6150 c3         1 IY7       0.146800
     25 N29          4.0990     0.7110    -0.1730 ns         1 IY7      -0.497900
     26 N36         10.0110    -3.1370    -1.4230 n8         1 IY7      -0.999200
     27 O19          0.5230    -2.7490     0.8970 o          1 IY7      -0.720000
     28 O28         -9.0780    -1.0050    -1.7880 o          1 IY7      -0.752000
     29 O18          0.0640    -1.3240     2.4500 o          1 IY7      -0.720000
     30 O31          4.4360    -0.4920     1.7490 o          1 IY7      -0.585100
     31 O27         -9.5880    -0.8910     0.2990 o          1 IY7      -0.752000
     32 O20         -2.8240    -2.0210     1.0930 os         1 IY7      -0.307100
     33 O23         -4.3740    -0.4780    -0.6910 os         1 IY7      -0.337100
     34 H2          -0.1620     6.2230     0.0180 ha         1 IY7       0.091000
     35 H3          -1.6630     4.4960     1.0160 ha         1 IY7       0.109000
     36 H1           2.1670     5.6130    -0.6670 ha         1 IY7       0.088000
     37 H4          -0.8450     2.1520     1.3250 ha         1 IY7       0.170000
     38 H12         -0.5250     1.4590    -2.1470 ha         1 IY7       0.082000
     39 H13         -2.9820     1.1450    -2.2180 ha         1 IY7       0.106000
     40 H71C         3.3740     2.7480    -1.4550 hc         1 IY7       0.036700
     41 H72C         4.1270     3.6760    -0.1440 hc         1 IY7       0.036700
     42 H9           1.5790     0.7410     1.5490 hc         1 IY7       0.124700
     43 H101         1.8320    -0.6980    -0.4460 hc         1 IY7       0.035700
     44 H102         1.6220     0.6640    -1.5080 hc         1 IY7       0.035700
     45 H321         5.0610    -2.3780    -0.0120 hc         1 IY7       0.054700
     46 H322         5.2020    -1.2020    -1.3580 hc         1 IY7       0.054700
     47 H29          4.2950     0.7420    -1.1650 hn         1 IY7       0.300500
     48 H251        -6.9320     0.2230    -1.1670 hc         1 IY7       0.025700
     49 H252        -7.3680     0.3200     0.6150 hc         1 IY7       0.025700
     50 H8           3.6760     1.9650     1.5410 h1         1 IY7       0.068700
     51 H211        -4.6140    -2.9200     1.6580 h1         1 IY7       0.051200
     52 H212        -4.1650    -3.1140    -0.0570 h1         1 IY7       0.051200
     53 H22         -5.0390    -0.4820     1.2750 h1         1 IY7       0.046700
     54 H241        -6.4520    -2.1600    -0.8900 hc         1 IY7       0.045700
     55 H242        -6.9350    -2.0970     0.7940 hc         1 IY7       0.045700
     56 H331         7.2470    -0.2460    -0.2760 hc         1 IY7       0.051200
     57 H332         7.1160    -1.4270     1.0270 hc         1 IY7       0.051200
     58 H341         7.4010    -3.2920    -0.6340 hc         1 IY7       0.042700
     59 H342         7.5360    -2.1080    -1.9370 hc         1 IY7       0.042700
     60 H351         9.5990    -1.1520    -0.8680 h1         1 IY7       0.027200
     61 H352         9.4640    -2.3490     0.4470 h1         1 IY7       0.027200
     62 H361        11.0060    -3.0760    -1.1740 hn         1 IY7       0.386000
     63 H362         9.7470    -4.0870    -1.1340 hn         1 IY7       0.386000
     64 C25         -7.3740    -0.2840    -0.3010 c3         1 IY7      -0.202400
     65 C30          4.6100    -0.3520     0.5460 c          1 IY7       0.598100
     66 C17         -0.0190    -1.7280     1.2980 c          1 IY7       0.726600
@<TRIPOS>BOND
     1     1     2 ar  
     2     1     3 ar  
     3     1    34 1   
     4     2     4 ar  
     5     2    35 1   
     6     3     8 ar  
     7     3    36 1   
     8     4     9 ar  
     9     4    37 1   
    10     5     6 ar  
    11     5    10 ar  
    12     5    38 1   
    13     6    11 ar  
    14     6    39 1   
    15     7    10 ar  
    16     7    12 ar  
    17     7    66 1   
    18     8     9 ar  
    19     8    14 1   
    20     9    16 1   
    21    10    19 1   
    22    11    12 ar  
    23    11    33 1   
    24    12    32 1   
    25    13    28 1   
    26    13    31 1   
    27    13    64 1   
    28    14    17 1   
    29    14    40 1   
    30    14    41 1   
    31    15    18 1   
    32    15    32 1   
    33    15    51 1   
    34    15    52 1   
    35    16    17 1   
    36    16    19 1   
    37    16    42 1   
    38    17    25 1   
    39    17    50 1   
    40    18    21 1   
    41    18    33 1   
    42    18    53 1   
    43    19    43 1   
    44    19    44 1   
    45    20    22 1   
    46    20    45 1   
    47    20    46 1   
    48    20    65 1   
    49    21    54 1   
    50    21    55 1   
    51    21    64 1   
    52    22    23 1   
    53    22    56 1   
    54    22    57 1   
    55    23    24 1   
    56    23    58 1   
    57    23    59 1   
    58    24    26 1   
    59    24    60 1   
    60    24    61 1   
    61    25    47 1   
    62    25    65 1   
    63    26    62 1   
    64    26    63 1   
    65    27    66 1   
    66    29    66 1   
    67    30    65 2   
    68    48    64 1   
    69    49    64 1   
@<TRIPOS>SUBSTRUCTURE
     1 IY7         1 TEMP              0 ****  ****    0 ROOT
