@<TRIPOS>MOLECULE
IY7
   66    69     1     0     0
SMALL
abcg2


@<TRIPOS>ATOM
      1 C2          -0.2670     4.8780     0.4460 ca         1 IY7      -0.132000
      2 C3          -0.8860     3.8180     1.1030 ca         1 IY7      -0.113000
      3 C1           0.9800     4.7080    -0.1460 ca         1 IY7      -0.117000
      4 C4          -0.2730     2.5720     1.1680 ca         1 IY7      -0.057000
      5 C12         -0.9150     0.4930    -1.6630 ca         1 IY7      -0.127000
      6 C13         -2.2900     0.3340    -1.7020 ca         1 IY7      -0.147000
      7 C16         -0.7880    -0.7700     0.3730 ca         1 IY7      -0.109600
      8 C6           1.5930     3.4660    -0.0750 ca         1 IY7      -0.113300
      9 C5           0.9680     2.4040     0.5710 ca         1 IY7      -0.052300
     10 C11         -0.1480    -0.0470    -0.6350 ca         1 IY7      -0.092300
     11 C14         -2.9280    -0.3840    -0.7010 ca         1 IY7       0.056100
     12 C15         -2.1690    -0.9320     0.3330 ca         1 IY7       0.061100
     13 C26         -8.6350    -0.6780    -0.7390 c          1 IY7       0.716000
     14 C7           2.9280     3.0380    -0.6110 c5         1 IY7      -0.040100
     15 C21         -4.0730    -2.0830     1.0430 c6         1 IY7       0.116600
     16 C9           1.8060     1.1590     0.4930 c5         1 IY7      -0.031400
     17 C8           3.2060     1.7610     0.1970 c5         1 IY7       0.106700
     18 C22         -4.8970    -0.9610     0.4450 c6         1 IY7       0.126300
     19 C10          1.3360     0.1990    -0.6190 c3         1 IY7       0.006900
     20 C32          5.6970    -0.9420    -0.7190 c3         1 IY7      -0.158400
     21 C24         -6.3130    -1.3960     0.1250 c3         1 IY7      -0.048400
     22 C33          7.0050    -1.3280    -0.0390 c3         1 IY7      -0.066400
     23 C34          7.8840    -2.1960    -0.9280 c3         1 IY7      -0.080400
     24 C35          9.1880    -2.5880    -0.2490 c3         1 IY7       0.146800
     25 N29          4.1430     0.8920    -0.4690 ns         1 IY7      -0.497900
     26 N36         10.0130    -3.4020    -1.1310 n8         1 IY7      -0.999200
     27 O19          0.6240    -2.4070     1.3090 o          1 IY7      -0.720000
     28 O28         -9.2680     0.0790    -1.5040 o          1 IY7      -0.752000
     29 O18         -0.1270    -0.7670     2.6260 o          1 IY7      -0.720000
     30 O31          4.6940    -0.2940     1.3640 o          1 IY7      -0.585100
     31 O27         -9.0810    -1.6950    -0.1720 o          1 IY7      -0.752000
     32 O20         -2.7550    -1.6510     1.3280 os         1 IY7      -0.307100
     33 O23         -4.2750    -0.5250    -0.7610 os         1 IY7      -0.337100
     34 H2          -0.7540     5.8440     0.4070 ha         1 IY7       0.091000
     35 H3          -1.8520     3.9680     1.5690 ha         1 IY7       0.109000
     36 H1           1.4650     5.5390    -0.6450 ha         1 IY7       0.088000
     37 H4          -0.7430     1.7450     1.6850 ha         1 IY7       0.170000
     38 H12         -0.4280     1.0600    -2.4470 ha         1 IY7       0.082000
     39 H13         -2.8760     0.7620    -2.5060 ha         1 IY7       0.106000
     40 H71C         2.8620     2.8240    -1.6850 hc         1 IY7       0.036700
     41 H72C         3.7110     3.7870    -0.4870 hc         1 IY7       0.036700
     42 H9           1.8120     0.6230     1.4420 hc         1 IY7       0.124700
     43 H101         1.8780    -0.7420    -0.5100 hc         1 IY7       0.035700
     44 H102         1.6210     0.6080    -1.5920 hc         1 IY7       0.035700
     45 H321         5.1390    -1.8490    -0.9780 hc         1 IY7       0.054700
     46 H322         5.9020    -0.4330    -1.6650 hc         1 IY7       0.054700
     47 H29          4.2500     0.9810    -1.4660 hn         1 IY7       0.300500
     48 H251        -6.7300     0.1060    -1.3760 hc         1 IY7       0.025700
     49 H252        -7.1880     0.5610     0.2420 hc         1 IY7       0.025700
     50 H8           3.6420     2.0540     1.1560 h1         1 IY7       0.068700
     51 H211        -4.5110    -2.4100     1.9870 h1         1 IY7       0.051200
     52 H212        -4.0550    -2.9410     0.3580 h1         1 IY7       0.051200
     53 H22         -4.9200    -0.1220     1.1560 h1         1 IY7       0.046700
     54 H241        -6.2800    -2.2520    -0.5550 hc         1 IY7       0.045700
     55 H242        -6.7650    -1.7560     1.0520 hc         1 IY7       0.045700
     56 H331         7.5520    -0.4220     0.2400 hc         1 IY7       0.051200
     57 H332         6.7890    -1.8560     0.8920 hc         1 IY7       0.051200
     58 H341         7.3370    -3.1030    -1.2100 hc         1 IY7       0.042700
     59 H342         8.1110    -1.6700    -1.8600 hc         1 IY7       0.042700
     60 H351         9.7450    -1.6800     0.0010 h1         1 IY7       0.027200
     61 H352         8.9550    -3.0760     0.7090 h1         1 IY7       0.027200
     62 H361        10.8840    -3.6230    -0.6670 hn         1 IY7       0.386000
     63 H362         9.5550    -4.2920    -1.2830 hn         1 IY7       0.386000
     64 C25         -7.1730    -0.2840    -0.4580 c3         1 IY7      -0.202400
     65 C30          4.8060    -0.0930     0.1620 c          1 IY7       0.598100
     66 C17         -0.0260    -1.3730     1.5430 c          1 IY7       0.726600
@<TRIPOS>BOND
     1     1     2 ar  
     2     1     3 ar  
     3     1    34 1   
     4     2     4 ar  
     5     2    35 1   
     6     3     8 ar  
     7     3    36 1   
     8     4     9 ar  
     9     4    37 1   
    10     5     6 ar  
    11     5    10 ar  
    12     5    38 1   
    13     6    11 ar  
    14     6    39 1   
    15     7    10 ar  
    16     7    12 ar  
    17     7    66 1   
    18     8     9 ar  
    19     8    14 1   
    20     9    16 1   
    21    10    19 1   
    22    11    12 ar  
    23    11    33 1   
    24    12    32 1   
    25    13    28 1   
    26    13    31 1   
    27    13    64 1   
    28    14    17 1   
    29    14    40 1   
    30    14    41 1   
    31    15    18 1   
    32    15    32 1   
    33    15    51 1   
    34    15    52 1   
    35    16    17 1   
    36    16    19 1   
    37    16    42 1   
    38    17    25 1   
    39    17    50 1   
    40    18    21 1   
    41    18    33 1   
    42    18    53 1   
    43    19    43 1   
    44    19    44 1   
    45    20    22 1   
    46    20    45 1   
    47    20    46 1   
    48    20    65 1   
    49    21    54 1   
    50    21    55 1   
    51    21    64 1   
    52    22    23 1   
    53    22    56 1   
    54    22    57 1   
    55    23    24 1   
    56    23    58 1   
    57    23    59 1   
    58    24    26 1   
    59    24    60 1   
    60    24    61 1   
    61    25    47 1   
    62    25    65 1   
    63    26    62 1   
    64    26    63 1   
    65    27    66 1   
    66    29    66 1   
    67    30    65 2   
    68    48    64 1   
    69    49    64 1   
@<TRIPOS>SUBSTRUCTURE
     1 IY7         1 TEMP              0 ****  ****    0 ROOT
