@<TRIPOS>MOLECULE
IY8
   60    59     1     0     0
SMALL
abcg2


@<TRIPOS>ATOM
      1 C12         21.8950    66.2950    -8.4630 c          1 IY8       0.590100
      2 C10         18.4200    68.1100    -8.5410 c3         1 IY8      -0.080400
      3 C21         14.7370    65.3520    -8.3500 c3         1 IY8      -0.075400
      4 C25         11.1860    62.8490   -10.6680 c2         1 IY8      -0.228200
      5 C23         12.4930    64.4930    -9.2860 c3         1 IY8      -0.044200
      6 C19         16.0750    67.3720    -9.2050 c3         1 IY8      -0.074400
      7 O05         20.6740    71.4530    -4.3960 os         1 IY8      -0.602400
      8 C15         19.4100    72.1130    -4.3030 c3         1 IY8       0.208900
      9 C09         20.5360    66.7630    -8.9790 c3         1 IY8      -0.224700
     10 C14         21.9310    65.7430    -7.0640 c3         1 IY8      -0.197100
     11 C13         20.6790    67.3060   -10.3860 c          1 IY8       0.602100
     12 C11         20.6470    68.9720    -7.6540 c3         1 IY8      -0.039400
     13 C16         20.3800    66.7970   -12.6790 c3         1 IY8       0.154900
     14 O04         22.8890    66.3370    -9.1610 o          1 IY8      -0.521100
     15 O06         21.0990    68.4010   -10.6770 o          1 IY8      -0.451000
     16 C20         15.1380    66.2110    -9.5500 c3         1 IY8      -0.073400
     17 C22         13.8720    64.1410    -8.7070 c3         1 IY8      -0.071400
     18 C26         10.3480    61.6250   -10.8770 c3         1 IY8      -0.053900
     19 C24         11.6350    63.2810    -9.4930 c2         1 IY8      -0.215200
     20 C03         20.2240    69.6170    -6.3320 c3         1 IY8      -0.447400
     21 C08         19.8090    67.7310    -8.0090 c3         1 IY8      -0.033700
     22 O02         20.2760    66.4070   -11.2930 os         1 IY8      -0.463100
     23 O07         21.0570    72.1680    -6.8320 o          1 IY8      -0.821500
     24 P01         21.2740    71.0350    -5.8660 p5         1 IY8       1.405400
     25 H1          18.5320    68.6620    -9.4810 hc         1 IY8       0.052700
     26 H2          17.9650    68.8090    -7.8340 hc         1 IY8       0.052700
     27 H3          15.6370    64.9930    -7.8440 hc         1 IY8       0.040200
     28 H4          14.2040    65.9770    -7.6230 hc         1 IY8       0.040200
     29 H5          11.4370    63.4180   -11.5620 ha         1 IY8       0.165000
     30 H6          12.6050    65.0250   -10.2330 hc         1 IY8       0.044200
     31 H7          11.9950    65.1800    -8.5900 hc         1 IY8       0.044200
     32 H8          16.1860    68.0110   -10.0870 hc         1 IY8       0.039700
     33 H9          15.6140    67.9950    -8.4300 hc         1 IY8       0.039700
     34 H10         19.2840    72.4300    -3.2690 h1         1 IY8       0.006367
     35 H11         19.3770    72.9860    -4.9580 h1         1 IY8       0.006367
     36 H12         18.5930    71.4370    -4.5690 h1         1 IY8       0.006367
     37 H13         19.9410    65.8470    -9.0370 hc         1 IY8       0.073700
     38 H14         22.8550    65.1880    -6.9140 hc         1 IY8       0.065700
     39 H15         21.8940    66.5680    -6.3490 hc         1 IY8       0.065700
     40 H16         21.0660    65.1070    -6.8700 hc         1 IY8       0.065700
     41 H17         21.7020    68.6970    -7.5800 hc         1 IY8       0.062700
     42 H18         20.5810    69.6990    -8.4640 hc         1 IY8       0.062700
     43 H19         20.0130    65.9470   -13.2470 h1         1 IY8       0.044033
     44 H20         19.7670    67.6770   -12.8670 h1         1 IY8       0.044033
     45 H21         21.4180    67.0080   -12.9320 h1         1 IY8       0.044033
     46 H22         17.3950    66.3700    -7.8120 hc         1 IY8       0.032700
     47 H23         17.8710    66.2460    -9.4940 hc         1 IY8       0.032700
     48 H24         14.2390    66.6150   -10.0230 hc         1 IY8       0.033700
     49 H25         15.6210    65.5740   -10.3000 hc         1 IY8       0.033700
     50 H26         13.7270    63.5310    -7.8090 hc         1 IY8       0.036700
     51 H27         14.4070    63.5110    -9.4250 hc         1 IY8       0.036700
     52 H28         10.8450    60.9170   -11.5480 hc         1 IY8       0.035367
     53 H29         10.1450    61.1160    -9.9330 hc         1 IY8       0.035367
     54 H30          9.3900    61.8760   -11.3440 hc         1 IY8       0.035367
     55 H31         11.3900    62.7110    -8.5970 ha         1 IY8       0.161000
     56 H32         19.1870    69.9590    -6.3850 hc         1 IY8       0.035700
     57 H33         20.2800    68.8820    -5.5250 hc         1 IY8       0.035700
     58 H34         19.6600    67.1580    -7.0900 hc         1 IY8       0.042700
     59 O1          22.6740    70.5620    -5.5950 o          1 IY8      -0.821500
     60 C18         17.4670    66.9350    -8.7460 c3         1 IY8      -0.081400
@<TRIPOS>BOND
     1     1     9 1   
     2     1    10 1   
     3     1    14 2   
     4     2    21 1   
     5     2    25 1   
     6     2    26 1   
     7     2    60 1   
     8     3    16 1   
     9     3    17 1   
    10     3    27 1   
    11     3    28 1   
    12     4    18 1   
    13     4    19 2   
    14     4    29 1   
    15     5    17 1   
    16     5    19 1   
    17     5    30 1   
    18     5    31 1   
    19     6    16 1   
    20     6    32 1   
    21     6    33 1   
    22     6    60 1   
    23     7     8 1   
    24     7    24 1   
    25     8    34 1   
    26     8    35 1   
    27     8    36 1   
    28     9    11 1   
    29     9    21 1   
    30     9    37 1   
    31    10    38 1   
    32    10    39 1   
    33    10    40 1   
    34    11    15 2   
    35    11    22 1   
    36    12    20 1   
    37    12    21 1   
    38    12    41 1   
    39    12    42 1   
    40    13    22 1   
    41    13    43 1   
    42    13    44 1   
    43    13    45 1   
    44    16    48 1   
    45    16    49 1   
    46    17    50 1   
    47    17    51 1   
    48    18    52 1   
    49    18    53 1   
    50    18    54 1   
    51    19    55 1   
    52    20    24 1   
    53    20    56 1   
    54    20    57 1   
    55    21    58 1   
    56    23    24 1   
    57    24    59 1   
    58    46    60 1   
    59    47    60 1   
@<TRIPOS>SUBSTRUCTURE
     1 IY8         1 TEMP              0 ****  ****    0 ROOT
