@<TRIPOS>MOLECULE
IY8
   60    59     1     0     0
SMALL
No Charge or Current Charge


@<TRIPOS>ATOM
      1 C12         21.8190    65.9390    -7.9920 c          1 IY8       0.590100
      2 C10         18.5280    68.0290    -8.6260 c3         1 IY8      -0.080400
      3 C21         14.8380    65.1940    -8.2930 c3         1 IY8      -0.075400
      4 C25         10.9720    62.8410   -10.3210 c2         1 IY8      -0.228200
      5 C23         12.4520    64.4300    -9.0060 c3         1 IY8      -0.044200
      6 C19         16.1490    67.2390    -9.2330 c3         1 IY8      -0.074400
      7 O05         20.1970    71.8620    -4.7360 os         1 IY8      -0.602400
      8 C15         18.8450    72.3020    -4.8950 c3         1 IY8       0.208900
      9 C09         20.7820    66.7060    -8.8220 c3         1 IY8      -0.224700
     10 C14         21.6820    64.4170    -7.9860 c3         1 IY8      -0.197100
     11 C13         21.4570    67.3210   -10.0470 c          1 IY8       0.602100
     12 C11         20.6870    69.0370    -7.6350 c3         1 IY8      -0.039400
     13 C16         21.0270    67.9990   -12.3220 c3         1 IY8       0.154900
     14 O04         22.7160    66.4840    -7.3630 o          1 IY8      -0.521100
     15 O06         22.4920    67.9710   -10.0050 o          1 IY8      -0.451000
     16 C20         15.1910    66.0600    -9.5290 c3         1 IY8      -0.073400
     17 C22         13.8810    64.0140    -8.5880 c3         1 IY8      -0.071400
     18 C26         10.0540    61.6490   -10.4810 c3         1 IY8      -0.053900
     19 C24         11.5360    63.2350    -9.1680 c2         1 IY8      -0.215200
     20 C03         20.0400    69.9030    -6.5210 c3         1 IY8      -0.447400
     21 C08         19.9180    67.7190    -7.9790 c3         1 IY8      -0.033700
     22 O02         20.6000    67.3360   -11.1180 os         1 IY8      -0.463100
     23 O07         21.0740    72.3880    -7.1020 o          1 IY8      -0.821500
     24 P01         21.0470    71.3630    -6.0150 p5         1 IY8       1.405400
     25 H1          18.6760    68.5170    -9.5970 hc         1 IY8       0.052700
     26 H2          17.9990    68.7550    -8.0000 hc         1 IY8       0.052700
     27 H3          15.7600    64.7770    -7.8710 hc         1 IY8       0.040200
     28 H4          14.3980    65.8310    -7.5150 hc         1 IY8       0.040200
     29 H5          11.1600    63.3910   -11.2460 ha         1 IY8       0.165000
     30 H6          12.4970    64.9960    -9.9450 hc         1 IY8       0.044200
     31 H7          12.0390    65.1110    -8.2510 hc         1 IY8       0.044200
     32 H8          16.2220    67.8560   -10.1370 hc         1 IY8       0.039700
     33 H9          15.7070    67.8750    -8.4560 hc         1 IY8       0.039700
     34 H10         18.5700    72.9810    -4.0780 h1         1 IY8       0.006367
     35 H11         18.7060    72.8370    -5.8430 h1         1 IY8       0.006367
     36 H12         18.1560    71.4480    -4.8720 h1         1 IY8       0.006367
     37 H13         20.0940    65.9570    -9.2190 hc         1 IY8       0.073700
     38 H14         22.4560    63.9240    -7.3860 hc         1 IY8       0.065700
     39 H15         20.6760    64.1520    -7.6430 hc         1 IY8       0.065700
     40 H16         21.6790    64.0540    -9.0200 hc         1 IY8       0.065700
     41 H17         21.7060    68.7930    -7.3170 hc         1 IY8       0.062700
     42 H18         20.7890    69.6460    -8.5430 hc         1 IY8       0.062700
     43 H19         20.2530    67.9210   -13.0950 h1         1 IY8       0.044033
     44 H20         21.2150    69.0650   -12.1360 h1         1 IY8       0.044033
     45 H21         21.9470    67.5450   -12.7130 h1         1 IY8       0.044033
     46 H22         17.5280    66.2640    -7.8610 hc         1 IY8       0.032700
     47 H23         17.9690    66.1360    -9.5670 hc         1 IY8       0.032700
     48 H24         14.2700    66.4770    -9.9510 hc         1 IY8       0.033700
     49 H25         15.6320    65.4230   -10.3060 hc         1 IY8       0.033700
     50 H26         13.8140    63.3940    -7.6860 hc         1 IY8       0.036700
     51 H27         14.3170    63.3800    -9.3700 hc         1 IY8       0.036700
     52 H28         10.4720    60.9260   -11.1910 hc         1 IY8       0.035367
     53 H29          9.8950    61.1290    -9.5290 hc         1 IY8       0.035367
     54 H30          9.0720    61.9590   -10.8590 hc         1 IY8       0.035367
     55 H31         11.3460    62.6850    -8.2440 ha         1 IY8       0.161000
     56 H32         19.0750    70.2950    -6.8520 hc         1 IY8       0.035700
     57 H33         19.8730    69.2990    -5.6220 hc         1 IY8       0.035700
     58 H34         19.7040    67.2210    -7.0240 hc         1 IY8       0.042700
     59 O1          22.4140    70.9210    -5.6060 o          1 IY8      -0.821500
     60 C18         17.5750    66.8180    -8.8050 c3         1 IY8      -0.081400
@<TRIPOS>BOND
     1     1     9 1   
     2     1    10 1   
     3     1    14 2   
     4     2    21 1   
     5     2    25 1   
     6     2    26 1   
     7     2    60 1   
     8     3    16 1   
     9     3    17 1   
    10     3    27 1   
    11     3    28 1   
    12     4    18 1   
    13     4    19 2   
    14     4    29 1   
    15     5    17 1   
    16     5    19 1   
    17     5    30 1   
    18     5    31 1   
    19     6    16 1   
    20     6    32 1   
    21     6    33 1   
    22     6    60 1   
    23     7     8 1   
    24     7    24 1   
    25     8    34 1   
    26     8    35 1   
    27     8    36 1   
    28     9    11 1   
    29     9    21 1   
    30     9    37 1   
    31    10    38 1   
    32    10    39 1   
    33    10    40 1   
    34    11    15 2   
    35    11    22 1   
    36    12    20 1   
    37    12    21 1   
    38    12    41 1   
    39    12    42 1   
    40    13    22 1   
    41    13    43 1   
    42    13    44 1   
    43    13    45 1   
    44    16    48 1   
    45    16    49 1   
    46    17    50 1   
    47    17    51 1   
    48    18    52 1   
    49    18    53 1   
    50    18    54 1   
    51    19    55 1   
    52    20    24 1   
    53    20    56 1   
    54    20    57 1   
    55    21    58 1   
    56    23    24 1   
    57    24    59 1   
    58    46    60 1   
    59    47    60 1   
@<TRIPOS>SUBSTRUCTURE
     1 IY8         1 TEMP              0 ****  ****    0 ROOT
