@<TRIPOS>MOLECULE
IYA
   51    54     1     0     0
SMALL
No Charge or Current Charge


@<TRIPOS>ATOM
      1 N1          11.2950    37.3250   -16.2190 nb         1 IYA      -0.162000
      2 N3          11.8640    36.1730   -14.1730 nb         1 IYA      -0.300000
      3 C4          13.0580    36.8130   -14.1280 ca         1 IYA       0.417300
      4 C5          12.4920    37.9350   -16.1680 ca         1 IYA       0.146300
      5 C6          13.4040    37.7190   -15.1510 ca         1 IYA      -0.180800
      6 C7          14.6170    38.4940   -15.3320 cc         1 IYA       0.026600
      7 C8          14.5850    39.2570   -16.4860 cd         1 IYA      -0.190400
      8 C13         16.7330    39.1680   -12.2740 ca         1 IYA      -0.158500
      9 C15         18.1810    38.4210   -14.0830 ca         1 IYA      -0.158500
     10 C20         11.7480    37.8370   -11.2960 c3         1 IYA       0.166600
     11 C22         11.1210    39.4910   -13.0240 ca         1 IYA       0.168100
     12 C24          8.8110    39.8640   -13.7410 ca         1 IYA       0.018000
     13 C26         10.6520    41.0380   -14.8400 ca         1 IYA      -0.049000
     14 C2          11.0420    36.4700   -15.2060 ca         1 IYA       0.168900
     15 S9          13.0600    39.0770   -17.4020 ss         1 IYA      -0.078900
     16 O10         13.9560    36.5490   -13.1120 os         1 IYA      -0.443300
     17 C11         15.7740    38.6070   -14.4490 ca         1 IYA      -0.046800
     18 C12         15.6160    39.0490   -13.1210 ca         1 IYA      -0.062000
     19 C14         18.0110    38.8510   -12.7580 ca         1 IYA       0.174000
     20 C16         17.0630    38.3020   -14.9290 ca         1 IYA      -0.062000
     21 F17         19.0840    38.9650   -11.9450 f          1 IYA      -0.181000
     22 C18         13.5410    36.0000   -11.8410 c3         1 IYA       0.170600
     23 C19         13.0590    37.1290   -10.8890 c3         1 IYA      -0.108400
     24 O21         12.0720    38.8630   -12.2490 os         1 IYA      -0.356100
     25 C23          9.7410    39.2290   -12.8970 ca         1 IYA      -0.260000
     26 C25          9.2780    40.7710   -14.7170 ca         1 IYA      -0.162000
     27 C27         11.5690    40.3990   -13.9930 ca         1 IYA      -0.176000
     28 N28          7.4390    39.5430   -13.5560 ns         1 IYA      -0.149000
     29 C29          6.2820    39.9690   -14.1950 c          1 IYA       0.609100
     30 O30          6.2500    40.7750   -15.1170 o          1 IYA      -0.578100
     31 C31          5.0050    39.3390   -13.6470 c3         1 IYA      -0.183100
     32 H1          15.3520    39.9360   -16.8450 h4         1 IYA       0.223000
     33 H2          16.6080    39.5050   -11.2490 ha         1 IYA       0.130500
     34 H3          19.1750    38.1810   -14.4510 ha         1 IYA       0.130500
     35 H4          11.0540    37.0970   -11.7140 h1         1 IYA       0.043700
     36 H5          11.2790    38.2860   -10.4100 h1         1 IYA       0.043700
     37 H6          11.0060    41.7360   -15.5960 ha         1 IYA       0.118000
     38 H7          10.0810    35.9590   -15.2270 h5         1 IYA       0.046100
     39 H8          14.6280    39.3020   -12.7480 ha         1 IYA       0.126000
     40 H9          17.1970    37.9660   -15.9550 ha         1 IYA       0.126000
     41 H10         12.7640    35.2330   -11.9560 h1         1 IYA       0.068700
     42 H11         14.4010    35.5100   -11.3650 h1         1 IYA       0.068700
     43 H12         12.8990    36.6770    -9.9030 hc         1 IYA       0.063200
     44 H13         13.8580    37.8680   -10.7560 hc         1 IYA       0.063200
     45 H14          9.3760    38.5320   -12.1490 ha         1 IYA       0.110000
     46 H15          8.5960    41.2810   -15.3900 ha         1 IYA       0.151000
     47 H16         12.6320    40.5970   -14.0960 ha         1 IYA       0.129000
     48 H17          7.2760    38.8740   -12.8140 hn         1 IYA       0.146000
     49 H18          4.1050    39.6890   -14.1650 hc         1 IYA       0.062700
     50 H19          5.0980    38.2480   -13.6900 hc         1 IYA       0.062700
     51 H20          4.9490    39.5250   -12.5680 hc         1 IYA       0.062700
@<TRIPOS>BOND
     1     1     4 ar  
     2     1    14 ar  
     3     2     3 ar  
     4     2    14 ar  
     5     3     5 ar  
     6     3    16 1   
     7     4     5 ar  
     8     4    15 1   
     9     5     6 1   
    10     6     7 2   
    11     6    17 1   
    12     7    15 1   
    13     7    32 1   
    14     8    18 ar  
    15     8    19 ar  
    16     8    33 1   
    17     9    19 ar  
    18     9    20 ar  
    19     9    34 1   
    20    10    23 1   
    21    10    24 1   
    22    10    35 1   
    23    10    36 1   
    24    11    24 1   
    25    11    25 ar  
    26    11    27 ar  
    27    12    25 ar  
    28    12    26 ar  
    29    12    28 1   
    30    13    26 ar  
    31    13    27 ar  
    32    13    37 1   
    33    14    38 1   
    34    16    22 1   
    35    17    18 ar  
    36    17    20 ar  
    37    18    39 1   
    38    19    21 1   
    39    20    40 1   
    40    22    23 1   
    41    22    41 1   
    42    22    42 1   
    43    23    43 1   
    44    23    44 1   
    45    25    45 1   
    46    26    46 1   
    47    27    47 1   
    48    28    29 1   
    49    28    48 1   
    50    29    30 2   
    51    29    31 1   
    52    31    49 1   
    53    31    50 1   
    54    31    51 1   
@<TRIPOS>SUBSTRUCTURE
     1 IYA         1 TEMP              0 ****  ****    0 ROOT
