@<TRIPOS>MOLECULE
IYA
   51    54     1     0     0
SMALL
bcc


@<TRIPOS>ATOM
      1 N1          11.2180    37.4380   -16.0800 nb         1 IYA      -0.688000
      2 N3          11.7880    36.4350   -14.0120 nb         1 IYA      -0.826000
      3 C4          12.9870    36.9750   -14.0210 ca         1 IYA       0.745600
      4 C5          12.4330    37.9820   -16.0760 ca         1 IYA       0.474600
      5 C6          13.3930    37.8160   -15.0770 ca         1 IYA      -0.311400
      6 C7          14.6010    38.5510   -15.3390 cc         1 IYA       0.026600
      7 C8          14.5110    39.2200   -16.5170 cd         1 IYA      -0.140400
      8 C13         16.8480    39.1600   -12.3710 ca         1 IYA      -0.176500
      9 C15         18.1880    38.3380   -14.2080 ca         1 IYA      -0.176500
     10 C20         11.7070    37.9350   -11.1900 c3         1 IYA       0.143400
     11 C22         11.1220    39.4780   -12.9360 ca         1 IYA       0.168100
     12 C24          8.8580    39.7990   -13.7310 ca         1 IYA       0.110600
     13 C26         10.6750    40.9880   -14.7390 ca         1 IYA      -0.067000
     14 C2          10.9630    36.6960   -15.0260 ca         1 IYA       0.694900
     15 S9          13.0050    39.0130   -17.3360 ss         1 IYA      -0.078900
     16 O10         13.8490    36.7300   -13.0550 os         1 IYA      -0.420100
     17 C11         15.7990    38.6180   -14.4820 ca         1 IYA      -0.046800
     18 C12         15.7170    39.0730   -13.1660 ca         1 IYA      -0.080000
     19 C14         18.0660    38.7820   -12.9070 ca         1 IYA       0.138900
     20 C16         17.0440    38.2600   -14.9910 ca         1 IYA      -0.080000
     21 F17         19.1630    38.8500   -12.1370 f          1 IYA      -0.145900
     22 C18         13.4160    36.1300   -11.8290 c3         1 IYA       0.147400
     23 C19         12.9540    37.1580   -10.8100 c3         1 IYA      -0.108400
     24 O21         12.0640    38.9070   -12.1620 os         1 IYA      -0.332900
     25 C23          9.7650    39.1990   -12.8490 ca         1 IYA      -0.278000
     26 C25          9.3140    40.7050   -14.6850 ca         1 IYA      -0.180000
     27 C27         11.5830    40.3920   -13.8870 ca         1 IYA      -0.194000
     28 N28          7.5210    39.4140   -13.5830 ns         1 IYA      -0.475100
     29 C29          6.4190    39.8360   -14.2560 c          1 IYA       0.676100
     30 O30          6.4340    40.6900   -15.1250 o          1 IYA      -0.578100
     31 C31          5.1400    39.1460   -13.8490 c3         1 IYA      -0.183100
     32 H1          15.2660    39.8590   -16.9500 h4         1 IYA       0.173000
     33 H2          16.7830    39.5150   -11.3510 ha         1 IYA       0.148500
     34 H3          19.1530    38.0510   -14.6040 ha         1 IYA       0.148500
     35 H4          10.9530    37.2460   -11.5780 h1         1 IYA       0.043700
     36 H5          11.2850    38.4340   -10.3110 h1         1 IYA       0.043700
     37 H6          11.0330    41.6900   -15.4810 ha         1 IYA       0.136000
     38 H7           9.9820    36.2400   -14.9730 h5         1 IYA       0.046100
     39 H8          14.7610    39.3700   -12.7560 ha         1 IYA       0.144000
     40 H9          17.1250    37.9000   -16.0090 ha         1 IYA       0.144000
     41 H10         12.6370    35.3910   -12.0170 h1         1 IYA       0.068700
     42 H11         14.2940    35.6100   -11.4490 h1         1 IYA       0.068700
     43 H12         12.7290    36.6040    -9.8940 hc         1 IYA       0.063200
     44 H13         13.7660    37.8460   -10.5600 hc         1 IYA       0.063200
     45 H14          9.3870    38.5060   -12.1080 ha         1 IYA       0.128000
     46 H15          8.6390    41.1840   -15.3730 ha         1 IYA       0.169000
     47 H16         12.6400    40.6150   -13.9560 ha         1 IYA       0.147000
     48 H17          7.3630    38.7060   -12.8820 hn         1 IYA       0.312500
     49 H18          4.3910    39.8950   -13.5960 hc         1 IYA       0.062700
     50 H19          4.7570    38.5810   -14.7000 hc         1 IYA       0.062700
     51 H20          5.2490    38.4650   -13.0080 hc         1 IYA       0.062700
@<TRIPOS>BOND
     1     1     4 ar  
     2     1    14 ar  
     3     2     3 ar  
     4     2    14 ar  
     5     3     5 ar  
     6     3    16 1   
     7     4     5 ar  
     8     4    15 1   
     9     5     6 1   
    10     6     7 2   
    11     6    17 1   
    12     7    15 1   
    13     7    32 1   
    14     8    18 ar  
    15     8    19 ar  
    16     8    33 1   
    17     9    19 ar  
    18     9    20 ar  
    19     9    34 1   
    20    10    23 1   
    21    10    24 1   
    22    10    35 1   
    23    10    36 1   
    24    11    24 1   
    25    11    25 ar  
    26    11    27 ar  
    27    12    25 ar  
    28    12    26 ar  
    29    12    28 1   
    30    13    26 ar  
    31    13    27 ar  
    32    13    37 1   
    33    14    38 1   
    34    16    22 1   
    35    17    18 ar  
    36    17    20 ar  
    37    18    39 1   
    38    19    21 1   
    39    20    40 1   
    40    22    23 1   
    41    22    41 1   
    42    22    42 1   
    43    23    43 1   
    44    23    44 1   
    45    25    45 1   
    46    26    46 1   
    47    27    47 1   
    48    28    29 1   
    49    28    48 1   
    50    29    30 2   
    51    29    31 1   
    52    31    49 1   
    53    31    50 1   
    54    31    51 1   
@<TRIPOS>SUBSTRUCTURE
     1 IYA         1 TEMP              0 ****  ****    0 ROOT
