@<TRIPOS>MOLECULE
IYD
   56    59     1     0     0
SMALL
abcg2


@<TRIPOS>ATOM
      1 C5          13.9090    36.0620   -14.1720 c          1 IYD       0.634700
      2 C8           9.8290    36.0310    -9.0530 cc         1 IYD       0.128400
      3 C13          9.9510    37.3830    -9.2670 cd         1 IYD      -0.275100
      4 C17         12.0550    38.4480   -12.0730 cc         1 IYD      -0.172000
      5 C21          9.0590    35.3580    -8.0060 ca         1 IYD      -0.016800
      6 C22         14.4780    34.1810   -16.4860 c3         1 IYD       0.068900
      7 C24         18.1020    38.7990   -14.7340 c3         1 IYD       0.105000
      8 C26          9.0430    33.9640    -7.9310 ca         1 IYD      -0.089500
      9 C28         18.9510    39.5810   -15.7200 c3         1 IYD       0.136600
     10 C1          15.6090    37.5030   -15.5880 cc         1 IYD      -0.247600
     11 C2          14.8060    36.3990   -15.3100 cd         1 IYD      -0.169600
     12 C3          11.1110    36.2240   -10.7540 cd         1 IYD      -0.053000
     13 N4          10.5450    35.3270    -9.9730 nc         1 IYD      -0.296600
     14 N6          10.7720    37.5030   -10.3560 na         1 IYD       0.120100
     15 C9          11.9590    36.0410   -11.8660 cd         1 IYD      -0.121000
     16 N10         15.0460    35.5010   -16.2890 na         1 IYD       0.178800
     17 N11         15.9180    35.9490   -17.1770 nd         1 IYD      -0.515800
     18 C12         16.2780    37.1480   -16.7680 cc         1 IYD       0.266900
     19 C14         12.4340    37.1460   -12.5250 cc         1 IYD       0.077600
     20 N15         13.2720    37.1250   -13.6330 ns         1 IYD      -0.395100
     21 C16         11.2380    38.6040   -11.0070 cd         1 IYD      -0.091000
     22 N18         16.7850    39.3760   -14.5360 n          1 IYD      -0.375800
     23 O19         13.7850    34.9110   -13.7940 o          1 IYD      -0.585100
     24 O20         14.5480    39.3570   -14.6180 o          1 IYD      -0.650100
     25 O23         18.2820    39.6800   -16.9470 os         1 IYD      -0.454000
     26 C25         16.7230    40.6640   -13.8640 c3         1 IYD       0.086300
     27 C27          8.3260    36.0850    -7.0650 ca         1 IYD      -0.089500
     28 C29         19.0020    40.4160   -17.9030 c3         1 IYD       0.143900
     29 C30          7.6030    35.4370    -6.0760 ca         1 IYD      -0.117500
     30 C31          8.3180    33.3170    -6.9410 ca         1 IYD      -0.117500
     31 C32          7.5950    34.0490    -6.0090 ca         1 IYD      -0.107000
     32 H1           9.5480    38.2460    -8.7630 h4         1 IYD       0.230000
     33 H2          12.4250    39.3310   -12.5760 ha         1 IYD       0.144000
     34 H3          14.6710    33.9000   -17.5170 h1         1 IYD       0.070033
     35 H4          14.9390    33.4540   -15.8220 h1         1 IYD       0.070033
     36 H5          13.4060    34.1930   -16.3170 h1         1 IYD       0.070033
     37 H6          18.6260    38.7880   -13.7750 h1         1 IYD       0.065200
     38 H7          18.0060    37.7630   -15.0460 h1         1 IYD       0.065200
     39 H8           9.6050    33.3860    -8.6520 ha         1 IYD       0.120500
     40 H9          19.9150    39.0640   -15.8230 h1         1 IYD       0.029200
     41 H10         19.1730    40.5810   -15.3200 h1         1 IYD       0.029200
     42 H11         12.2000    35.0330   -12.1560 ha         1 IYD       0.172000
     43 H12         16.9870    37.7340   -17.3300 h4         1 IYD       0.062100
     44 H13         13.4870    38.0350   -14.0500 hn         1 IYD       0.374500
     45 H14         10.9280    39.5670   -10.6310 h4         1 IYD       0.144000
     46 H15         17.7250    40.9510   -13.5560 h1         1 IYD       0.045367
     47 H16         16.3320    41.4420   -14.5190 h1         1 IYD       0.045367
     48 H17         16.0970    40.6150   -12.9740 h1         1 IYD       0.045367
     49 H18          8.3180    37.1670    -7.0970 ha         1 IYD       0.120500
     50 H19         18.4060    40.4560   -18.8140 h1         1 IYD       0.032367
     51 H20         19.1940    41.4410   -17.5670 h1         1 IYD       0.032367
     52 H21         19.9660    39.9510   -18.1390 h1         1 IYD       0.032367
     53 H22          7.0430    36.0180    -5.3550 ha         1 IYD       0.110500
     54 H23          8.3190    32.2350    -6.8990 ha         1 IYD       0.110500
     55 H24          7.0300    33.5430    -5.2370 ha         1 IYD       0.110000
     56 C7          15.6240    38.8070   -14.8810 c          1 IYD       0.661700
@<TRIPOS>BOND
     1     1    11 1   
     2     1    20 1   
     3     1    23 2   
     4     2     3 2   
     5     2     5 1   
     6     2    13 1   
     7     3    14 1   
     8     3    32 1   
     9     4    19 1   
    10     4    21 2   
    11     4    33 1   
    12     5     8 ar  
    13     5    27 ar  
    14     6    16 1   
    15     6    34 1   
    16     6    35 1   
    17     6    36 1   
    18     7     9 1   
    19     7    22 1   
    20     7    37 1   
    21     7    38 1   
    22     8    30 ar  
    23     8    39 1   
    24     9    25 1   
    25     9    40 1   
    26     9    41 1   
    27    10    11 2   
    28    10    18 1   
    29    10    56 1   
    30    11    16 1   
    31    12    13 2   
    32    12    14 1   
    33    12    15 1   
    34    14    21 1   
    35    15    19 2   
    36    15    42 1   
    37    16    17 1   
    38    17    18 2   
    39    18    43 1   
    40    19    20 1   
    41    20    44 1   
    42    21    45 1   
    43    22    26 1   
    44    22    56 1   
    45    24    56 2   
    46    25    28 1   
    47    26    46 1   
    48    26    47 1   
    49    26    48 1   
    50    27    29 ar  
    51    27    49 1   
    52    28    50 1   
    53    28    51 1   
    54    28    52 1   
    55    29    31 ar  
    56    29    53 1   
    57    30    31 ar  
    58    30    54 1   
    59    31    55 1   
@<TRIPOS>SUBSTRUCTURE
     1 IYD         1 TEMP              0 ****  ****    0 ROOT
