@<TRIPOS>MOLECULE
IYD
   56    59     1     0     0
SMALL
No Charge or Current Charge


@<TRIPOS>ATOM
      1 C5          13.5800    36.0310   -14.3430 c          1 IYD       0.634700
      2 C8           9.7970    35.8400    -8.9030 cc         1 IYD       0.128400
      3 C13         10.1500    37.1740    -8.8730 cd         1 IYD      -0.275100
      4 C17         12.3790    38.2400   -11.5420 cc         1 IYD      -0.172000
      5 C21          8.9330    35.2380    -7.8730 ca         1 IYD      -0.016800
      6 C22         14.5530    34.1320   -16.6750 c3         1 IYD       0.068900
      7 C24         17.9270    39.0760   -14.9210 c3         1 IYD       0.105000
      8 C26          8.8220    33.8320    -7.7750 ca         1 IYD      -0.089500
      9 C28         19.0870    39.7810   -15.6670 c3         1 IYD       0.136600
     10 C1          15.4030    37.5080   -15.5860 cc         1 IYD      -0.247600
     11 C2          14.6150    36.3740   -15.3860 cd         1 IYD      -0.169600
     12 C3          11.0620    36.0500   -10.6110 cd         1 IYD      -0.053000
     13 N4          10.3550    35.1460    -9.9580 nc         1 IYD      -0.296600
     14 N6          10.9410    37.2590    -9.9870 na         1 IYD       0.120100
     15 C9          11.8550    35.8660   -11.7820 cd         1 IYD      -0.121000
     16 N10         15.0360    35.4980   -16.4100 na         1 IYD       0.178800
     17 N11         16.0130    36.0350   -17.2270 nd         1 IYD      -0.515800
     18 C12         16.1940    37.2260   -16.7110 cc         1 IYD       0.266900
     19 C14         12.5170    36.9890   -12.2590 cc         1 IYD       0.077600
     20 N15         13.3380    36.9910   -13.3860 ns         1 IYD      -0.395100
     21 C16         11.6050    38.4120   -10.3970 cd         1 IYD      -0.091000
     22 N18         16.5630    39.6520   -15.1380 n          1 IYD      -0.375800
     23 O19         12.9980    34.9560   -14.3460 o          1 IYD      -0.585100
     24 O20         14.4970    39.2610   -14.2390 o          1 IYD      -0.650100
     25 O23         18.8160    39.7410   -17.0810 os         1 IYD      -0.454000
     26 C25         16.4450    41.1120   -14.9000 c3         1 IYD       0.086300
     27 C27          8.1590    36.0370    -6.9980 ca         1 IYD      -0.089500
     28 C29         19.8150    40.3730   -17.8980 c3         1 IYD       0.143900
     29 C30          7.3210    35.4440    -6.0380 ca         1 IYD      -0.117500
     30 C31          7.9840    33.2410    -6.8130 ca         1 IYD      -0.117500
     31 C32          7.2350    34.0470    -5.9420 ca         1 IYD      -0.107000
     32 H1           9.9300    37.9950    -8.2030 h4         1 IYD       0.230000
     33 H2          12.9180    39.1000   -11.9280 ha         1 IYD       0.144000
     34 H3          15.0720    33.7110   -17.5450 h1         1 IYD       0.070033
     35 H4          14.7460    33.4980   -15.8020 h1         1 IYD       0.070033
     36 H5          13.4760    34.1570   -16.8800 h1         1 IYD       0.070033
     37 H6          18.1420    39.1420   -13.8470 h1         1 IYD       0.065200
     38 H7          17.9570    38.0100   -15.1640 h1         1 IYD       0.065200
     39 H8           9.3930    33.1900    -8.4410 ha         1 IYD       0.120500
     40 H9          20.0260    39.2610   -15.4400 h1         1 IYD       0.029200
     41 H10         19.1820    40.8170   -15.3170 h1         1 IYD       0.029200
     42 H11         11.9240    34.8870   -12.2370 ha         1 IYD       0.172000
     43 H12         16.8980    37.8840   -17.2030 h4         1 IYD       0.062100
     44 H13         13.8240    37.8580   -13.5780 hn         1 IYD       0.374500
     45 H14         11.4770    39.3270    -9.8320 h4         1 IYD       0.144000
     46 H15         17.1080    41.6620   -15.5790 h1         1 IYD       0.045367
     47 H16         15.4180    41.4520   -15.0860 h1         1 IYD       0.045367
     48 H17         16.7170    41.3440   -13.8620 h1         1 IYD       0.045367
     49 H18          8.1950    37.1210    -7.0590 ha         1 IYD       0.120500
     50 H19         19.5420    40.3020   -18.9580 h1         1 IYD       0.032367
     51 H20         19.9140    41.4360   -17.6410 h1         1 IYD       0.032367
     52 H21         20.7920    39.8900   -17.7630 h1         1 IYD       0.032367
     53 H22          6.7340    36.0710    -5.3690 ha         1 IYD       0.110500
     54 H23          7.9150    32.1580    -6.7450 ha         1 IYD       0.110500
     55 H24          6.5850    33.5900    -5.1980 ha         1 IYD       0.110000
     56 C7          15.4240    38.8440   -14.9170 c          1 IYD       0.661700
@<TRIPOS>BOND
     1     1    11 1   
     2     1    20 1   
     3     1    23 2   
     4     2     3 2   
     5     2     5 1   
     6     2    13 1   
     7     3    14 1   
     8     3    32 1   
     9     4    19 1   
    10     4    21 2   
    11     4    33 1   
    12     5     8 ar  
    13     5    27 ar  
    14     6    16 1   
    15     6    34 1   
    16     6    35 1   
    17     6    36 1   
    18     7     9 1   
    19     7    22 1   
    20     7    37 1   
    21     7    38 1   
    22     8    30 ar  
    23     8    39 1   
    24     9    25 1   
    25     9    40 1   
    26     9    41 1   
    27    10    11 2   
    28    10    18 1   
    29    10    56 1   
    30    11    16 1   
    31    12    13 2   
    32    12    14 1   
    33    12    15 1   
    34    14    21 1   
    35    15    19 2   
    36    15    42 1   
    37    16    17 1   
    38    17    18 2   
    39    18    43 1   
    40    19    20 1   
    41    20    44 1   
    42    21    45 1   
    43    22    26 1   
    44    22    56 1   
    45    24    56 2   
    46    25    28 1   
    47    26    46 1   
    48    26    47 1   
    49    26    48 1   
    50    27    29 ar  
    51    27    49 1   
    52    28    50 1   
    53    28    51 1   
    54    28    52 1   
    55    29    31 ar  
    56    29    53 1   
    57    30    31 ar  
    58    30    54 1   
    59    31    55 1   
@<TRIPOS>SUBSTRUCTURE
     1 IYD         1 TEMP              0 ****  ****    0 ROOT
