@<TRIPOS>MOLECULE
IYE
   89    92     1     0     0
SMALL
abcg2


@<TRIPOS>ATOM
      1 N1          13.8640   -14.8630    10.4890 n7         1 IYE      -0.942300
      2 C7          13.9980   -14.8110     8.0050 c3         1 IYE      -0.106400
      3 C8          13.4050   -15.4750     9.2410 c3         1 IYE       0.232800
      4 N2          19.1510   -11.7710    -7.2550 nh         1 IYE      -0.332700
      5 C9          14.6810   -16.2340    12.6680 c3         1 IYE       0.118000
      6 O1          14.4180   -18.0310     2.6430 os         1 IYE      -0.452000
      7 C1          15.9540   -17.8700     0.8660 c3         1 IYE       0.099000
      8 O5          18.5250   -18.2390    -7.4850 o          1 IYE      -0.672000
      9 C5          13.6040   -16.7560     6.4040 c3         1 IYE       0.160600
     10 C6          13.3810   -15.2810     6.6910 c3         1 IYE      -0.074400
     11 N3          12.8650   -18.1940   -10.0580 nh         1 IYE      -0.794400
     12 C4          13.3230   -18.3760     4.7260 c3         1 IYE       0.162600
     13 O4          15.8600   -14.0830    11.8150 o          1 IYE      -0.489500
     14 C3          13.2490   -18.5460     3.2280 c3         1 IYE       0.165600
     15 O3          16.0050   -16.1690    10.3960 o          1 IYE      -0.489500
     16 C2          14.5620   -18.3300     1.2800 c3         1 IYE       0.140600
     17 N           16.2920   -18.2590    -0.4820 ns         1 IYE      -0.506900
     18 C           16.2580   -17.4250    -1.5360 c          1 IYE       0.619700
     19 O           15.8100   -16.2890    -1.4700 o          1 IYE      -0.610100
     20 C10         16.8330   -17.9460    -2.8210 ca         1 IYE      -0.171600
     21 C11         17.6530   -19.0690    -2.9010 ca         1 IYE      -0.085000
     22 C12         18.1960   -19.4550    -4.1150 ca         1 IYE      -0.093000
     23 C13         17.9610   -18.7250    -5.2720 ca         1 IYE      -0.088600
     24 C14         18.6190   -19.1030    -6.5900 c          1 IYE       0.705600
     25 C15         17.1420   -17.5990    -5.1950 ca         1 IYE      -0.127000
     26 C16         16.8360   -16.7810    -6.3930 cc         1 IYE       0.337000
     27 C17         17.4410   -15.5290    -6.5700 cd         1 IYE      -0.216300
     28 C18         18.4570   -15.0130    -5.7320 cd         1 IYE      -0.004200
     29 C19         19.0190   -13.7940    -5.9510 cc         1 IYE      -0.379100
     30 C20         18.6050   -12.9800    -7.0500 cc         1 IYE       0.438900
     31 C21         20.1850   -11.2670    -6.3710 c3         1 IYE       0.057900
     32 C22         18.7100   -10.9490    -8.3640 c3         1 IYE       0.057900
     33 C23         17.6100   -13.4870    -7.9090 cc         1 IYE      -0.426100
     34 C24         17.0590   -14.7230    -7.6630 cd         1 IYE       0.291000
     35 C25         15.7970   -17.1500    -7.2610 ca         1 IYE      -0.204500
     36 C26         15.0590   -18.3490    -7.1460 ca         1 IYE       0.052000
     37 C27         14.0990   -18.6900    -8.0480 ca         1 IYE      -0.224500
     38 C28         15.4780   -16.3160    -8.3510 ca         1 IYE       0.291000
     39 C29         14.5170   -16.6370    -9.2820 ca         1 IYE      -0.271500
     40 C30         13.8010   -17.8440    -9.1610 ca         1 IYE       0.431000
     41 C31         12.1400   -19.4420    -9.9200 c3         1 IYE       0.206100
     42 C32         12.5830   -17.3320   -11.1890 c3         1 IYE       0.206100
     43 C33         16.5820   -17.2180    -3.9820 ca         1 IYE      -0.060000
     44 F           15.7360   -16.5990    13.3820 f          1 IYE      -0.102667
     45 F1          14.0280   -17.3150    12.2690 f          1 IYE      -0.102667
     46 F2          13.8830   -15.4960    13.4250 f          1 IYE      -0.102667
     47 O2          13.2710   -17.0120     5.0600 os         1 IYE      -0.450000
     48 O6          19.1820   -20.2060    -6.6490 o          1 IYE      -0.672000
     49 O7          16.1230   -15.1500    -8.5270 os         1 IYE      -0.278000
     50 S           15.2490   -15.2490    11.2170 s6         1 IYE       1.196100
     51 H1          13.5070   -13.9420    10.7160 hn         1 IYE       0.516000
     52 H2          15.0780   -14.9800     7.9870 hc         1 IYE       0.053200
     53 H3          13.8520   -13.7310     8.0910 hc         1 IYE       0.053200
     54 H4          12.3180   -15.3810     9.2410 h1         1 IYE       0.068200
     55 H5          13.6230   -16.5410     9.2760 h1         1 IYE       0.068200
     56 H6          16.6890   -18.3150     1.5400 h1         1 IYE       0.067200
     57 H7          16.0380   -16.7880     0.9570 h1         1 IYE       0.067200
     58 H8          12.9970   -17.3780     7.0780 h1         1 IYE       0.023200
     59 H9          14.6550   -17.0220     6.5950 h1         1 IYE       0.023200
     60 H10         13.8270   -14.6990     5.8810 hc         1 IYE       0.059700
     61 H11         12.3090   -15.0610     6.6830 hc         1 IYE       0.059700
     62 H12         12.4880   -18.9270     5.1820 h1         1 IYE       0.031200
     63 H13         14.2490   -18.8400     5.0950 h1         1 IYE       0.031200
     64 H14         12.3520   -18.0520     2.8300 h1         1 IYE       0.030700
     65 H15         13.1430   -19.6190     3.0160 h1         1 IYE       0.030700
     66 H16         13.7980   -17.8290     0.6700 h1         1 IYE       0.027200
     67 H17         14.4620   -19.4100     1.1000 h1         1 IYE       0.027200
     68 H18         16.5900   -19.2110    -0.6110 hn         1 IYE       0.315500
     69 H19         17.9100   -19.6490    -2.0250 ha         1 IYE       0.105000
     70 H20         18.8350   -20.3260    -4.1620 ha         1 IYE       0.150000
     71 H21         18.7970   -15.6040    -4.8920 ha         1 IYE       0.211500
     72 H22         19.7880   -13.4500    -5.2760 ha         1 IYE       0.197500
     73 H23         21.0640   -11.9140    -6.3670 h1         1 IYE       0.049533
     74 H24         20.4990   -10.2870    -6.7150 h1         1 IYE       0.049533
     75 H25         19.8270   -11.1620    -5.3460 h1         1 IYE       0.049533
     76 H26         18.9090   -11.4280    -9.3250 h1         1 IYE       0.049533
     77 H27         17.6420   -10.7330    -8.3020 h1         1 IYE       0.049533
     78 H28         19.2430   -10.0050    -8.3430 h1         1 IYE       0.049533
     79 H29         17.2610   -12.9300    -8.7660 ha         1 IYE       0.206500
     80 H30         15.2610   -19.0180    -6.3200 ha         1 IYE       0.143500
     81 H31         13.5670   -19.6190    -7.9100 ha         1 IYE       0.129500
     82 H32         14.3350   -15.9470   -10.0930 ha         1 IYE       0.138500
     83 H33         12.8070   -20.3050    -9.9550 h1         1 IYE       0.049533
     84 H34         11.5740   -19.4800    -8.9870 h1         1 IYE       0.049533
     85 H35         11.4340   -19.5360   -10.7380 h1         1 IYE       0.049533
     86 H36         11.8010   -17.7790   -11.7940 h1         1 IYE       0.049533
     87 H37         12.2360   -16.3480   -10.8680 h1         1 IYE       0.049533
     88 H38         13.4630   -17.1980   -11.8220 h1         1 IYE       0.049533
     89 H39         15.9520   -16.3390    -3.9350 ha         1 IYE       0.130000
@<TRIPOS>BOND
     1     1     3 1   
     2     1    50 1   
     3     1    51 1   
     4     2     3 1   
     5     2    10 1   
     6     2    52 1   
     7     2    53 1   
     8     3    54 1   
     9     3    55 1   
    10     4    30 2   
    11     4    31 1   
    12     4    32 1   
    13     5    44 1   
    14     5    45 1   
    15     5    46 1   
    16     5    50 1   
    17     6    14 1   
    18     6    16 1   
    19     7    16 1   
    20     7    17 1   
    21     7    56 1   
    22     7    57 1   
    23     8    24 1   
    24     9    10 1   
    25     9    47 1   
    26     9    58 1   
    27     9    59 1   
    28    10    60 1   
    29    10    61 1   
    30    11    40 1   
    31    11    41 1   
    32    11    42 1   
    33    12    14 1   
    34    12    47 1   
    35    12    62 1   
    36    12    63 1   
    37    13    50 2   
    38    14    64 1   
    39    14    65 1   
    40    15    50 2   
    41    16    66 1   
    42    16    67 1   
    43    17    18 1   
    44    17    68 1   
    45    18    19 2   
    46    18    20 1   
    47    20    21 ar  
    48    20    43 ar  
    49    21    22 ar  
    50    21    69 1   
    51    22    23 ar  
    52    22    70 1   
    53    23    24 1   
    54    23    25 ar  
    55    24    48 1   
    56    25    26 1   
    57    25    43 ar  
    58    26    27 2   
    59    26    35 1   
    60    27    28 1   
    61    27    34 1   
    62    28    29 2   
    63    28    71 1   
    64    29    30 1   
    65    29    72 1   
    66    30    33 1   
    67    31    73 1   
    68    31    74 1   
    69    31    75 1   
    70    32    76 1   
    71    32    77 1   
    72    32    78 1   
    73    33    34 2   
    74    33    79 1   
    75    34    49 1   
    76    35    36 ar  
    77    35    38 ar  
    78    36    37 ar  
    79    36    80 1   
    80    37    40 ar  
    81    37    81 1   
    82    38    39 ar  
    83    38    49 1   
    84    39    40 ar  
    85    39    82 1   
    86    41    83 1   
    87    41    84 1   
    88    41    85 1   
    89    42    86 1   
    90    42    87 1   
    91    42    88 1   
    92    43    89 1   
@<TRIPOS>SUBSTRUCTURE
     1 IYE         1 TEMP              0 ****  ****    0 ROOT
