@<TRIPOS>MOLECULE
IYE
   89    92     1     0     0
SMALL
No Charge or Current Charge


@<TRIPOS>ATOM
      1 N1          12.7810   -14.3390    10.1460 n7         1 IYE      -0.942300
      2 C7          14.1250   -14.7600     8.0460 c3         1 IYE      -0.106400
      3 C8          12.8370   -15.0550     8.8520 c3         1 IYE       0.232800
      4 N2          19.1990   -11.7740    -7.3220 nh         1 IYE      -0.332700
      5 C9          13.5710   -16.4960    11.7730 c3         1 IYE       0.118000
      6 O1          15.3370   -18.4890     2.7850 os         1 IYE      -0.452000
      7 C1          16.9800   -18.3090     1.0270 c3         1 IYE       0.099000
      8 O5          18.8140   -18.2620    -7.6720 o          1 IYE      -0.672000
      9 C5          13.9930   -16.8140     6.4680 c3         1 IYE       0.160600
     10 C6          14.0810   -15.2780     6.5870 c3         1 IYE      -0.074400
     11 N3          12.3040   -18.0480    -9.6230 nh         1 IYE      -0.794400
     12 C4          13.9510   -18.5550     4.7880 c3         1 IYE       0.162600
     13 O4          13.2700   -13.9280    12.5560 o          1 IYE      -0.489500
     14 C3          14.0030   -18.7680     3.2560 c3         1 IYE       0.165600
     15 O3          15.1760   -14.4280    10.9560 o          1 IYE      -0.489500
     16 C2          15.5120   -18.6460     1.3660 c3         1 IYE       0.140600
     17 N           17.3000   -18.4970    -0.3970 ns         1 IYE      -0.506900
     18 C           16.8740   -17.6710    -1.4140 c          1 IYE       0.619700
     19 O           16.2010   -16.6760    -1.1830 o          1 IYE      -0.610100
     20 C10         17.2860   -18.0580    -2.8210 ca         1 IYE      -0.171600
     21 C11         18.0610   -19.2100    -3.0920 ca         1 IYE      -0.085000
     22 C12         18.4170   -19.5370    -4.4100 ca         1 IYE      -0.093000
     23 C13         18.0220   -18.7280    -5.4950 ca         1 IYE      -0.088600
     24 C14         18.4290   -19.1300    -6.9020 c          1 IYE       0.705600
     25 C15         17.2460   -17.5690    -5.2320 ca         1 IYE      -0.127000
     26 C16         16.7620   -16.7090    -6.3170 cc         1 IYE       0.337000
     27 C17         17.3890   -15.4860    -6.5400 cd         1 IYE      -0.216300
     28 C18         18.5270   -15.0840    -5.7470 cd         1 IYE      -0.004200
     29 C19         19.0990   -13.8580    -6.0260 cc         1 IYE      -0.379100
     30 C20         18.5990   -13.0030    -7.0660 cc         1 IYE       0.438900
     31 C21         20.5930   -11.4850    -6.9270 c3         1 IYE       0.057900
     32 C22         18.4800   -10.6800    -8.0070 c3         1 IYE       0.057900
     33 C23         17.4770   -13.4340    -7.8390 cc         1 IYE      -0.426100
     34 C24         16.8890   -14.6430    -7.5860 cd         1 IYE       0.291000
     35 C25         15.6160   -17.0700    -7.1530 ca         1 IYE      -0.204500
     36 C26         14.9230   -18.2820    -6.9640 ca         1 IYE       0.052000
     37 C27         13.8280   -18.6000    -7.7840 ca         1 IYE      -0.224500
     38 C28         15.1880   -16.1990    -8.1630 ca         1 IYE       0.291000
     39 C29         14.0990   -16.5190    -8.9780 ca         1 IYE      -0.271500
     40 C30         13.4080   -17.7240    -8.7980 ca         1 IYE       0.431000
     41 C31         11.1870   -18.8880    -9.1260 c3         1 IYE       0.206100
     42 C32         12.2160   -17.5680   -11.0230 c3         1 IYE       0.206100
     43 C33         16.8830   -17.2530    -3.9070 ca         1 IYE      -0.060000
     44 F           14.1970   -16.8610    12.9190 f          1 IYE      -0.102667
     45 F1          14.0730   -17.2710    10.7800 f          1 IYE      -0.102667
     46 F2          12.2590   -16.8070    11.9110 f          1 IYE      -0.102667
     47 O2          14.0220   -17.1420     5.0710 os         1 IYE      -0.450000
     48 O6          18.3940   -20.3180    -7.1890 o          1 IYE      -0.672000
     49 O7          15.8310   -15.0090    -8.3580 os         1 IYE      -0.278000
     50 S           13.8140   -14.6930    11.4280 s6         1 IYE       1.196100
     51 H1          12.9890   -13.3510    10.0010 hn         1 IYE       0.516000
     52 H2          14.9910   -15.2130     8.5420 hc         1 IYE       0.053200
     53 H3          14.2960   -13.6770     8.0230 hc         1 IYE       0.053200
     54 H4          11.9840   -14.7350     8.2370 h1         1 IYE       0.068200
     55 H5          12.7230   -16.1380     8.9910 h1         1 IYE       0.068200
     56 H6          17.6430   -18.9530     1.6200 h1         1 IYE       0.067200
     57 H7          17.1860   -17.2660     1.3040 h1         1 IYE       0.067200
     58 H8          13.0630   -17.1720     6.9280 h1         1 IYE       0.023200
     59 H9          14.8420   -17.2730     6.9910 h1         1 IYE       0.023200
     60 H10         14.9870   -14.9390     6.0690 hc         1 IYE       0.059700
     61 H11         13.2300   -14.8250     6.0640 hc         1 IYE       0.059700
     62 H12         13.0110   -18.9720     5.1720 h1         1 IYE       0.031200
     63 H13         14.7820   -19.0940     5.2620 h1         1 IYE       0.031200
     64 H14         13.2670   -18.1140     2.7700 h1         1 IYE       0.030700
     65 H15         13.7320   -19.8090     3.0350 h1         1 IYE       0.030700
     66 H16         14.8400   -17.9750     0.8160 h1         1 IYE       0.027200
     67 H17         15.2960   -19.6790     1.0630 h1         1 IYE       0.027200
     68 H18         17.8580   -19.2970    -0.6630 hn         1 IYE       0.315500
     69 H19         18.3950   -19.8670    -2.2940 ha         1 IYE       0.105000
     70 H20         19.0120   -20.4310    -4.5910 ha         1 IYE       0.150000
     71 H21         18.9400   -15.7060    -4.9540 ha         1 IYE       0.211500
     72 H22         19.9450   -13.5270    -5.4340 ha         1 IYE       0.197500
     73 H23         21.2280   -12.3660    -7.0870 h1         1 IYE       0.049533
     74 H24         21.0060   -10.6610    -7.5230 h1         1 IYE       0.049533
     75 H25         20.6360   -11.2030    -5.8680 h1         1 IYE       0.049533
     76 H26         18.5020   -10.8340    -9.0940 h1         1 IYE       0.049533
     77 H27         17.4350   -10.6400    -7.6760 h1         1 IYE       0.049533
     78 H28         18.9400    -9.7090    -7.7850 h1         1 IYE       0.049533
     79 H29         17.0960   -12.8130    -8.6380 ha         1 IYE       0.206500
     80 H30         15.2230   -18.9830    -6.1880 ha         1 IYE       0.143500
     81 H31         13.3160   -19.5450    -7.6300 ha         1 IYE       0.129500
     82 H32         13.7890   -15.8140    -9.7410 ha         1 IYE       0.138500
     83 H33         11.4180   -19.9540    -9.2540 h1         1 IYE       0.049533
     84 H34         10.9990   -18.6930    -8.0610 h1         1 IYE       0.049533
     85 H35         10.2590   -18.6650    -9.6700 h1         1 IYE       0.049533
     86 H36         11.6020   -18.2460   -11.6310 h1         1 IYE       0.049533
     87 H37         11.7660   -16.5670   -11.0600 h1         1 IYE       0.049533
     88 H38         13.2130   -17.5240   -11.4810 h1         1 IYE       0.049533
     89 H39         16.2760   -16.3660    -3.7270 ha         1 IYE       0.130000
@<TRIPOS>BOND
     1     1     3 1   
     2     1    50 1   
     3     1    51 1   
     4     2     3 1   
     5     2    10 1   
     6     2    52 1   
     7     2    53 1   
     8     3    54 1   
     9     3    55 1   
    10     4    30 2   
    11     4    31 1   
    12     4    32 1   
    13     5    44 1   
    14     5    45 1   
    15     5    46 1   
    16     5    50 1   
    17     6    14 1   
    18     6    16 1   
    19     7    16 1   
    20     7    17 1   
    21     7    56 1   
    22     7    57 1   
    23     8    24 1   
    24     9    10 1   
    25     9    47 1   
    26     9    58 1   
    27     9    59 1   
    28    10    60 1   
    29    10    61 1   
    30    11    40 1   
    31    11    41 1   
    32    11    42 1   
    33    12    14 1   
    34    12    47 1   
    35    12    62 1   
    36    12    63 1   
    37    13    50 2   
    38    14    64 1   
    39    14    65 1   
    40    15    50 2   
    41    16    66 1   
    42    16    67 1   
    43    17    18 1   
    44    17    68 1   
    45    18    19 2   
    46    18    20 1   
    47    20    21 ar  
    48    20    43 ar  
    49    21    22 ar  
    50    21    69 1   
    51    22    23 ar  
    52    22    70 1   
    53    23    24 1   
    54    23    25 ar  
    55    24    48 1   
    56    25    26 1   
    57    25    43 ar  
    58    26    27 2   
    59    26    35 1   
    60    27    28 1   
    61    27    34 1   
    62    28    29 2   
    63    28    71 1   
    64    29    30 1   
    65    29    72 1   
    66    30    33 1   
    67    31    73 1   
    68    31    74 1   
    69    31    75 1   
    70    32    76 1   
    71    32    77 1   
    72    32    78 1   
    73    33    34 2   
    74    33    79 1   
    75    34    49 1   
    76    35    36 ar  
    77    35    38 ar  
    78    36    37 ar  
    79    36    80 1   
    80    37    40 ar  
    81    37    81 1   
    82    38    39 ar  
    83    38    49 1   
    84    39    40 ar  
    85    39    82 1   
    86    41    83 1   
    87    41    84 1   
    88    41    85 1   
    89    42    86 1   
    90    42    87 1   
    91    42    88 1   
    92    43    89 1   
@<TRIPOS>SUBSTRUCTURE
     1 IYE         1 TEMP              0 ****  ****    0 ROOT
