@<TRIPOS>MOLECULE
IYF
   49    51     1     0     0
SMALL
No Charge or Current Charge


@<TRIPOS>ATOM
      1 C10        130.5180   145.8830   101.7540 ce         1 IYF       0.434500
      2 C13        128.9920   147.4500    98.9030 c2         1 IYF       0.831100
      3 C16        129.2180   145.8710    96.9640 c3         1 IYF       0.217800
      4 C17        130.6610   146.2200    96.5220 c3         1 IYF      -0.071100
      5 C18        131.6840   146.1950    97.6550 ca         1 IYF      -0.090300
      6 C19        132.2860   147.3890    98.1010 ca         1 IYF      -0.103000
      7 C20        133.2190   147.3630    99.1540 ca         1 IYF      -0.099500
      8 C21        133.5570   146.1440    99.7630 ca         1 IYF       0.127000
      9 C23        132.9650   144.9490    99.3220 ca         1 IYF      -0.099500
     10 C24        132.0330   144.9740    98.2690 ca         1 IYF      -0.103000
     11 C25        131.7680   147.4480   103.3590 cd         1 IYF      -0.102100
     12 C27        133.0200   145.9570   104.4610 ca         1 IYF      -0.082200
     13 C1         134.0220   146.3840   107.6160 c3         1 IYF      -0.089100
     14 C2         134.7880   146.0860   106.3130 c3         1 IYF      -0.032100
     15 C3         133.9410   145.3120   105.3080 ca         1 IYF      -0.044300
     16 C4         134.0580   143.9070   105.2000 ca         1 IYF      -0.181000
     17 C5         133.2760   143.1910   104.2660 ca         1 IYF       0.117100
     18 C7         132.3660   143.8670   103.4320 ca         1 IYF      -0.113000
     19 C8         132.2630   145.2590   103.5610 ca         1 IYF      -0.036800
     20 C9         131.4420   146.1940   102.8430 cc         1 IYF      -0.216800
     21 N11        129.9690   146.8250   101.0430 n2         1 IYF      -0.430400
     22 N12        129.3700   146.5290    99.8310 nu         1 IYF      -0.632500
     23 N14        128.7400   148.6360    99.2090 n2         1 IYF      -0.887100
     24 N15        128.5740   146.9600    97.7260 nu         1 IYF      -0.906400
     25 N26        132.7400   147.3110   104.3770 na         1 IYF      -0.213700
     26 O6         133.4010   141.8360   104.1700 oh         1 IYF      -0.540100
     27 Cl1        134.7330   146.1110   101.0710 cl         1 IYF      -0.197000
     28 H1         130.4170   144.8260   101.4950 h4         1 IYF      -0.014200
     29 H3         128.6240   145.6780    96.0590 h1         1 IYF       0.051700
     30 H4         129.2240   144.9370    97.5420 h1         1 IYF       0.051700
     31 H5         130.6560   147.1940    96.0170 hc         1 IYF       0.056200
     32 H6         130.9630   145.4920    95.7590 hc         1 IYF       0.056200
     33 H7         132.0260   148.3380    97.6390 ha         1 IYF       0.117500
     34 H8         133.6780   148.2860    99.4980 ha         1 IYF       0.132000
     35 H9         133.2310   144.0070    99.7930 ha         1 IYF       0.132000
     36 H10        131.5820   144.0430    97.9300 ha         1 IYF       0.117500
     37 H11        131.3810   148.4230   103.0690 h4         1 IYF       0.226000
     38 H12        134.6590   146.9360   108.3170 hc         1 IYF       0.036700
     39 H13        133.1300   146.9880   107.4130 hc         1 IYF       0.036700
     40 H14        133.7060   145.4520   108.0990 hc         1 IYF       0.036700
     41 H15        135.6950   145.5200   106.5590 hc         1 IYF       0.045700
     42 H16        135.1330   147.0300   105.8740 hc         1 IYF       0.045700
     43 H17        134.7570   143.3770   105.8420 ha         1 IYF       0.110000
     44 H18        131.7660   143.3210   102.7100 ha         1 IYF       0.126000
     45 H20        129.3430   145.5890    99.4460 hn         1 IYF       0.467000
     46 H21        129.0400   148.6760   100.1920 hn         1 IYF       0.411400
     47 H22        128.1280   147.6880    97.1790 hn         1 IYF       0.486000
     48 H23        133.1590   148.0570   104.9240 hn         1 IYF       0.353000
     49 H24        134.0730   141.5400   104.8210 ho         1 IYF       0.461000
@<TRIPOS>BOND
     1     1    20 1   
     2     1    21 2   
     3     1    28 1   
     4     2    22 1   
     5     2    23 2   
     6     2    24 1   
     7     3     4 1   
     8     3    24 1   
     9     3    29 1   
    10     3    30 1   
    11     4     5 1   
    12     4    31 1   
    13     4    32 1   
    14     5     6 ar  
    15     5    10 ar  
    16     6     7 ar  
    17     6    33 1   
    18     7     8 ar  
    19     7    34 1   
    20     8     9 ar  
    21     8    27 1   
    22     9    10 ar  
    23     9    35 1   
    24    10    36 1   
    25    11    20 2   
    26    11    25 1   
    27    11    37 1   
    28    12    15 ar  
    29    12    19 ar  
    30    12    25 1   
    31    13    14 1   
    32    13    38 1   
    33    13    39 1   
    34    13    40 1   
    35    14    15 1   
    36    14    41 1   
    37    14    42 1   
    38    15    16 ar  
    39    16    17 ar  
    40    16    43 1   
    41    17    18 ar  
    42    17    26 1   
    43    18    19 ar  
    44    18    44 1   
    45    19    20 1   
    46    21    22 1   
    47    22    45 1   
    48    23    46 1   
    49    24    47 1   
    50    25    48 1   
    51    26    49 1   
@<TRIPOS>SUBSTRUCTURE
     1 IYF         1 TEMP              0 ****  ****    0 ROOT
