@<TRIPOS>MOLECULE
IYF
   49    51     1     0     0
SMALL
bcc


@<TRIPOS>ATOM
      1 C10        130.7910   145.9790   101.6690 ce         1 IYF       0.434500
      2 C13        129.1970   147.6090    99.0370 c2         1 IYF       0.831100
      3 C16        129.0110   145.9530    97.1550 c3         1 IYF       0.217800
      4 C17        130.4010   145.9360    96.5050 c3         1 IYF      -0.071100
      5 C18        131.5290   146.0120    97.4950 ca         1 IYF      -0.090300
      6 C19        132.1900   147.2080    97.7520 ca         1 IYF      -0.121000
      7 C20        133.2040   147.2840    98.6980 ca         1 IYF      -0.117500
      8 C21        133.5630   146.1430    99.3950 ca         1 IYF       0.035400
      9 C23        132.9200   144.9370    99.1660 ca         1 IYF      -0.117500
     10 C24        131.9120   144.8810    98.2160 ca         1 IYF      -0.121000
     11 C25        131.7530   147.4290   103.5070 cd         1 IYF      -0.052100
     12 C27        133.0510   145.9670   104.5780 ca         1 IYF      -0.082200
     13 C1         133.6030   146.2330   107.7840 c3         1 IYF      -0.089100
     14 C2         134.5670   146.0760   106.6080 c3         1 IYF      -0.032100
     15 C3         133.9450   145.3450   105.4530 ca         1 IYF      -0.044300
     16 C4         134.1940   144.0040   105.2220 ca         1 IYF      -0.199000
     17 C5         133.5860   143.2990   104.1650 ca         1 IYF       0.117100
     18 C7         132.7050   143.9270   103.3050 ca         1 IYF      -0.131000
     19 C8         132.4280   145.2820   103.5180 ca         1 IYF      -0.036800
     20 C9         131.5990   146.2360   102.8380 cc         1 IYF      -0.216800
     21 N11        130.2700   146.9270   100.9970 n2         1 IYF      -0.430400
     22 N12        129.5100   146.6050    99.9320 nu         1 IYF      -0.577300
     23 N14        129.2810   148.8620    99.2770 n2         1 IYF      -0.887100
     24 N15        128.6670   147.1760    97.8480 nu         1 IYF      -0.851200
     25 N26        132.6140   147.2690   104.5380 na         1 IYF      -0.163400
     26 O6         133.8460   141.9860   103.9570 oh         1 IYF      -0.501100
     27 CL1        134.8260   146.2230   100.5820 cl         1 IYF      -0.105400
     28 H1         130.6500   144.9330   101.3860 h4         1 IYF      -0.014200
     29 H3         128.2630   145.8160    96.3740 h1         1 IYF       0.051700
     30 H4         128.8950   145.0880    97.8110 h1         1 IYF       0.051700
     31 H5         130.4700   146.7630    95.7950 hc         1 IYF       0.056200
     32 H6         130.4820   145.0130    95.9250 hc         1 IYF       0.056200
     33 H7         131.9100   148.1030    97.2100 ha         1 IYF       0.135500
     34 H8         133.7070   148.2240    98.8830 ha         1 IYF       0.150000
     35 H9         133.2030   144.0490    99.7170 ha         1 IYF       0.150000
     36 H10        131.4150   143.9350    98.0360 ha         1 IYF       0.135500
     37 H11        131.2900   148.3830   103.3160 h4         1 IYF       0.176000
     38 H12        134.0780   146.7740   108.6030 hc         1 IYF       0.036700
     39 H13        132.7070   146.7850   107.4980 hc         1 IYF       0.036700
     40 H14        133.2880   145.2600   108.1610 hc         1 IYF       0.036700
     41 H15        135.4560   145.5350   106.9360 hc         1 IYF       0.045700
     42 H16        134.9110   147.0630   106.2840 hc         1 IYF       0.045700
     43 H17        134.8850   143.4810   105.8780 ha         1 IYF       0.128000
     44 H18        132.2480   143.3760   102.4920 ha         1 IYF       0.144000
     45 H20        129.5230   145.6430    99.6180 hn         1 IYF       0.411800
     46 H21        129.6060   149.0160   100.2250 hn         1 IYF       0.411400
     47 H22        128.4740   147.9530    97.2340 hn         1 IYF       0.430800
     48 H23        132.8760   148.0000   105.1790 hn         1 IYF       0.302700
     49 H24        134.4730   141.6620   104.6130 ho         1 IYF       0.422000
@<TRIPOS>BOND
     1     1    20 1   
     2     1    21 2   
     3     1    28 1   
     4     2    22 1   
     5     2    23 2   
     6     2    24 1   
     7     3     4 1   
     8     3    24 1   
     9     3    29 1   
    10     3    30 1   
    11     4     5 1   
    12     4    31 1   
    13     4    32 1   
    14     5     6 ar  
    15     5    10 ar  
    16     6     7 ar  
    17     6    33 1   
    18     7     8 ar  
    19     7    34 1   
    20     8     9 ar  
    21     8    27 1   
    22     9    10 ar  
    23     9    35 1   
    24    10    36 1   
    25    11    20 2   
    26    11    25 1   
    27    11    37 1   
    28    12    15 ar  
    29    12    19 ar  
    30    12    25 1   
    31    13    14 1   
    32    13    38 1   
    33    13    39 1   
    34    13    40 1   
    35    14    15 1   
    36    14    41 1   
    37    14    42 1   
    38    15    16 ar  
    39    16    17 ar  
    40    16    43 1   
    41    17    18 ar  
    42    17    26 1   
    43    18    19 ar  
    44    18    44 1   
    45    19    20 1   
    46    21    22 1   
    47    22    45 1   
    48    23    46 1   
    49    24    47 1   
    50    25    48 1   
    51    26    49 1   
@<TRIPOS>SUBSTRUCTURE
     1 IYF         1 TEMP              0 ****  ****    0 ROOT
