@<TRIPOS>MOLECULE
IYG
   35    35     1     0     0
SMALL
abcg2


@<TRIPOS>ATOM
      1 CAN          4.0700     1.1760     1.2850 c3         1 IYG      -0.177100
      2 CN           2.9200     0.6340     2.0930 c          1 IYG       0.599100
      3 ON           3.0520    -0.3080     2.8640 o          1 IYG      -0.593100
      4 N            1.7400     1.2500     1.9160 ns         1 IYG      -0.490900
      5 CA           0.5390     0.8270     2.5880 c3         1 IYG       0.038700
      6 CB           0.0010    -0.5080     2.0410 c3         1 IYG      -0.055100
      7 CG          -0.1230    -0.4730     0.5450 ca         1 IYG      -0.100300
      8 CD1          0.8850    -0.9780    -0.2680 ca         1 IYG      -0.026000
      9 CE1          0.7890    -0.8970    -1.6450 ca         1 IYG       0.122000
     10 CD2         -1.2260     0.1120    -0.0620 ca         1 IYG      -0.026000
     11 CE2         -1.3170     0.1940    -1.4440 ca         1 IYG       0.122000
     12 CZ          -0.3110    -0.3090    -2.2740 ca         1 IYG       0.188100
     13 OH          -0.3210    -0.2710    -3.6080 oh         1 IYG      -0.520100
     14 I1           2.3380    -1.6700    -2.8310 i          1 IYG      -0.315000
     15 I2          -3.0190     1.1050    -2.2840 i          1 IYG      -0.315000
     16 C            0.7430     0.8940     4.1090 c          1 IYG       0.591100
     17 O            1.3750     1.8200     4.6010 o          1 IYG      -0.646100
     18 NT           0.1380    -0.0420     4.8380 ns         1 IYG      -0.454900
     19 CAT          0.1810    -0.0880     6.2770 c3         1 IYG      -0.059000
     20 CT          -0.5720    -1.3290     6.7990 c          1 IYG       0.714000
     21 OT1         -1.0570    -2.0960     5.9440 o          1 IYG      -0.729500
     22 OT2         -0.6160    -1.4440     8.0350 o          1 IYG      -0.729500
     23 HAN1         4.8020     1.6290     1.9540 hc         1 IYG       0.053367
     24 HAN2         4.5670     0.3570     0.7660 hc         1 IYG       0.053367
     25 HAN3         3.7720     1.9210     0.5500 hc         1 IYG       0.053367
     26 H            1.6750     2.0140     1.2640 hn         1 IYG       0.310500
     27 HA          -0.2100     1.5950     2.3720 h1         1 IYG       0.052700
     28 HB1          0.6520    -1.3300     2.3390 hc         1 IYG       0.082700
     29 HB2         -0.9850    -0.6980     2.4720 hc         1 IYG       0.082700
     30 HD1          1.7490    -1.4450     0.1880 ha         1 IYG       0.138500
     31 HD2         -2.0230     0.5100     0.5520 ha         1 IYG       0.138500
     32 H1O         -1.1340     0.1130    -3.9620 ho         1 IYG       0.478000
     33 HT1         -0.3400    -0.8270     4.4200 hn         1 IYG       0.341500
     34 HAT1         1.2150    -0.1230     6.6340 h1         1 IYG       0.038700
     35 HAT2        -0.2650     0.8120     6.7090 h1         1 IYG       0.038700
@<TRIPOS>BOND
     1     1     2 1   
     2     1    23 1   
     3     1    24 1   
     4     1    25 1   
     5     2     3 2   
     6     2     4 1   
     7     4     5 1   
     8     4    26 1   
     9     5     6 1   
    10     5    16 1   
    11     5    27 1   
    12     6     7 1   
    13     6    28 1   
    14     6    29 1   
    15     7     8 ar  
    16     7    10 ar  
    17     8     9 ar  
    18     8    30 1   
    19     9    12 ar  
    20     9    14 1   
    21    10    11 ar  
    22    10    31 1   
    23    11    12 ar  
    24    11    15 1   
    25    12    13 1   
    26    13    32 1   
    27    16    17 2   
    28    16    18 1   
    29    18    19 1   
    30    18    33 1   
    31    19    20 1   
    32    19    34 1   
    33    19    35 1   
    34    20    21 1   
    35    20    22 1   
@<TRIPOS>SUBSTRUCTURE
     1 IYG         1 TEMP              0 ****  ****    0 ROOT
