@<TRIPOS>MOLECULE
IYG
   35    35     1     0     0
SMALL
No Charge or Current Charge


@<TRIPOS>ATOM
      1 CAN          3.9390     1.6450     0.8820 c3         1 IYG      -0.177100
      2 CN           2.9980     0.7590     1.6900 c          1 IYG       0.599100
      3 ON           3.3130    -0.3640     2.0550 o          1 IYG      -0.593100
      4 N            1.7730     1.3300     1.9650 ns         1 IYG      -0.490900
      5 CA           0.6610     0.6870     2.7120 c3         1 IYG       0.038700
      6 CB           0.2040    -0.6620     2.0820 c3         1 IYG      -0.055100
      7 CG           0.0520    -0.5900     0.5640 ca         1 IYG      -0.100300
      8 CD1          0.9450    -1.2840    -0.2770 ca         1 IYG      -0.026000
      9 CE1          0.8170    -1.2040    -1.6740 ca         1 IYG       0.122000
     10 CD2         -0.9770     0.1820    -0.0100 ca         1 IYG      -0.026000
     11 CE2         -1.1090     0.2620    -1.4070 ca         1 IYG       0.122000
     12 CZ          -0.2130    -0.4290    -2.2500 ca         1 IYG       0.188100
     13 OH          -0.3440    -0.3450    -3.6150 oh         1 IYG      -0.520100
     14 I1           2.2380    -2.2880    -2.9200 i          1 IYG      -0.315000
     15 I2          -2.7080     1.4690    -2.2560 i          1 IYG      -0.315000
     16 C            0.9650     0.5980     4.2460 c          1 IYG       0.591100
     17 O            1.9730     1.0670     4.7670 o          1 IYG      -0.646100
     18 NT           0.0070    -0.0440     5.0040 ns         1 IYG      -0.454900
     19 CAT          0.0740    -0.2430     6.4720 c3         1 IYG      -0.059000
     20 CT          -1.0920    -1.1230     7.0040 c          1 IYG       0.714000
     21 OT1         -2.1070    -1.2240     6.3280 o          1 IYG      -0.729500
     22 OT2         -0.9280    -1.7110     8.0640 o          1 IYG      -0.729500
     23 HAN1         4.0630     2.6020     1.4010 hc         1 IYG       0.053367
     24 HAN2         4.9030     1.1650     0.6810 hc         1 IYG       0.053367
     25 HAN3         3.4360     1.9450    -0.0440 hc         1 IYG       0.053367
     26 H            1.6350     2.2740     1.6230 hn         1 IYG       0.310500
     27 HA          -0.1940     1.3720     2.6310 h1         1 IYG       0.052700
     28 HB1          0.9180    -1.4480     2.3580 hc         1 IYG       0.082700
     29 HB2         -0.7530    -0.9670     2.5230 hc         1 IYG       0.082700
     30 HD1          1.7470    -1.8830     0.1490 ha         1 IYG       0.138500
     31 HD2         -1.6750     0.7240     0.6230 ha         1 IYG       0.138500
     32 H1O         -1.1130     0.2350    -3.8130 ho         1 IYG       0.478000
     33 HT1         -0.8170    -0.3860     4.5210 hn         1 IYG       0.341500
     34 HAT1         1.0250    -0.7270     6.7260 h1         1 IYG       0.038700
     35 HAT2         0.0260     0.7330     6.9700 h1         1 IYG       0.038700
@<TRIPOS>BOND
     1     1     2 1   
     2     1    23 1   
     3     1    24 1   
     4     1    25 1   
     5     2     3 2   
     6     2     4 1   
     7     4     5 1   
     8     4    26 1   
     9     5     6 1   
    10     5    16 1   
    11     5    27 1   
    12     6     7 1   
    13     6    28 1   
    14     6    29 1   
    15     7     8 ar  
    16     7    10 ar  
    17     8     9 ar  
    18     8    30 1   
    19     9    12 ar  
    20     9    14 1   
    21    10    11 ar  
    22    10    31 1   
    23    11    12 ar  
    24    11    15 1   
    25    12    13 1   
    26    13    32 1   
    27    16    17 2   
    28    16    18 1   
    29    18    19 1   
    30    18    33 1   
    31    19    20 1   
    32    19    34 1   
    33    19    35 1   
    34    20    21 1   
    35    20    22 1   
@<TRIPOS>SUBSTRUCTURE
     1 IYG         1 TEMP              0 ****  ****    0 ROOT
