@<TRIPOS>MOLECULE
IYH
   29    31     1     0     0
SMALL
bcc


@<TRIPOS>ATOM
      1 C4          93.4650    -4.2980    15.1010 cx         1 IYH      -0.168000
      2 C6          94.9010    -4.4230    14.6710 cx         1 IYH      -0.119900
      3 C7          93.9080    -3.7950    13.7540 cx         1 IYH      -0.119900
      4 C8          91.6310    -5.6220    16.1660 ca         1 IYH       0.313900
      5 C13         88.8120    -8.4220    17.4300 ca         1 IYH       0.357200
      6 N15         92.7920    -6.4960    14.3270 nb         1 IYH      -0.602000
      7 C16         92.0370    -7.5730    14.3820 ca         1 IYH       0.217500
      8 O18         91.4960    -9.6330    13.3380 o          1 IYH      -0.786300
      9 O19         93.3120    -8.5440    12.6430 o          1 IYH      -0.786300
     10 C1          91.0220    -7.6640    15.3760 ca         1 IYH       0.563900
     11 N2          90.8500    -6.6880    16.2540 nb         1 IYH      -0.749000
     12 C3          92.6120    -5.5010    15.1940 ca         1 IYH       0.262300
     13 N9          87.6380   -10.8090    16.8780 nb         1 IYH      -0.689500
     14 N10         87.8530    -8.8900    18.2210 nb         1 IYH      -0.689500
     15 C11         89.2470    -9.1320    16.3040 ca         1 IYH      -0.007000
     16 C12         87.3090   -10.0530    17.9190 ca         1 IYH       0.558900
     17 C14         88.5900   -10.3520    16.0890 ca         1 IYH       0.357200
     18 H1          93.2510    -3.5440    15.8500 hc         1 IYH       0.062700
     19 H2          95.6260    -3.7870    15.1620 hc         1 IYH       0.072700
     20 H3          95.2590    -5.4160    14.4280 hc         1 IYH       0.072700
     21 H4          93.5880    -4.3610    12.8880 hc         1 IYH       0.072700
     22 H5          93.9440    -2.7230    13.6060 hc         1 IYH       0.072700
     23 H6          91.4690    -4.8360    16.8960 h4         1 IYH       0.002100
     24 H10         86.5270   -10.4250    18.5720 h5         1 IYH       0.030100
     25 H11         88.8640   -10.9690    15.2370 h4         1 IYH       0.040600
     26 C17         92.3170    -8.6780    13.3570 c          1 IYH       0.838100
     27 N5          90.2280    -8.7730    15.4160 nu         1 IYH      -0.744300
     28 H7          89.2440    -7.4680    17.6890 h4         1 IYH       0.040600
     29 H9          90.4680    -9.4140    14.6390 hn         1 IYH       0.524800
@<TRIPOS>BOND
     1     1     2 1   
     2     1     3 1   
     3     1    12 1   
     4     1    18 1   
     5     2     3 1   
     6     2    19 1   
     7     2    20 1   
     8     3    21 1   
     9     3    22 1   
    10     4    11 ar  
    11     4    12 ar  
    12     4    23 1   
    13     5    14 ar  
    14     5    15 ar  
    15     5    28 1   
    16     6     7 ar  
    17     6    12 ar  
    18     7    10 ar  
    19     7    26 1   
    20     8    26 1   
    21     9    26 1   
    22    10    11 ar  
    23    10    27 1   
    24    13    16 ar  
    25    13    17 ar  
    26    14    16 ar  
    27    15    17 ar  
    28    15    27 1   
    29    16    24 1   
    30    17    25 1   
    31    27    29 1   
@<TRIPOS>SUBSTRUCTURE
     1 IYH         1 TEMP              0 ****  ****    0 ROOT
