@<TRIPOS>MOLECULE
IYH
   29    31     1     0     0
SMALL
No Charge or Current Charge


@<TRIPOS>ATOM
      1 C4          93.4370    -4.2220    15.0120 cx         1 IYH      -0.168000
      2 C6          94.9290    -4.2410    14.7420 cx         1 IYH      -0.119900
      3 C7          93.9840    -3.6840    13.7040 cx         1 IYH      -0.119900
      4 C8          91.5150    -5.5830    16.0040 ca         1 IYH       0.313900
      5 C13         89.0520    -8.6970    17.6620 ca         1 IYH       0.028900
      6 N15         92.9280    -6.5100    14.2610 nb         1 IYH      -0.602000
      7 C16         92.1500    -7.6460    14.3550 ca         1 IYH       0.217500
      8 O18         91.6510    -9.7740    13.3730 o          1 IYH      -0.681000
      9 O19         93.4730    -8.8320    12.7530 o          1 IYH      -0.681000
     10 C1          91.0670    -7.7220    15.3050 ca         1 IYH       0.563900
     11 N2          90.7410    -6.6950    16.1150 nb         1 IYH      -0.749000
     12 C3          92.6040    -5.4840    15.0920 ca         1 IYH       0.262300
     13 N9          87.2810   -10.6180    16.7700 nb         1 IYH      -0.163500
     14 N10         88.0630    -9.1130    18.4830 nb         1 IYH      -0.163500
     15 C11         89.2040    -9.2090    16.3490 ca         1 IYH       0.262000
     16 C12         87.2250   -10.0500    17.9920 ca         1 IYH       0.032900
     17 C14         88.2740   -10.1980    15.9560 ca         1 IYH       0.028900
     18 H1          93.0970    -3.4740    15.7230 hc         1 IYH       0.062700
     19 H2          95.5510    -3.5370    15.2910 hc         1 IYH       0.072700
     20 H3          95.4040    -5.1960    14.5310 hc         1 IYH       0.072700
     21 H4          93.8270    -4.2670    12.8000 hc         1 IYH       0.072700
     22 H5          93.9710    -2.6070    13.5560 hc         1 IYH       0.072700
     23 H6          91.2590    -4.7530    16.6610 h4         1 IYH       0.002100
     24 H10         86.4260   -10.3860    18.6510 h5         1 IYH       0.030100
     25 H11         88.3210   -10.6590    14.9710 h4         1 IYH       0.040600
     26 C17         92.4490    -8.8430    13.4300 c          1 IYH       0.627500
     27 N5          90.2300    -8.8260    15.4610 nu         1 IYH      -0.937900
     28 H7          89.7350    -7.9630    18.0810 h4         1 IYH       0.040600
     29 H9          90.4150    -9.5030    14.7050 hn         1 IYH       0.580000
@<TRIPOS>BOND
     1     1     2 1   
     2     1     3 1   
     3     1    12 1   
     4     1    18 1   
     5     2     3 1   
     6     2    19 1   
     7     2    20 1   
     8     3    21 1   
     9     3    22 1   
    10     4    11 ar  
    11     4    12 ar  
    12     4    23 1   
    13     5    14 ar  
    14     5    15 ar  
    15     5    28 1   
    16     6     7 ar  
    17     6    12 ar  
    18     7    10 ar  
    19     7    26 1   
    20     8    26 1   
    21     9    26 1   
    22    10    11 ar  
    23    10    27 1   
    24    13    16 ar  
    25    13    17 ar  
    26    14    16 ar  
    27    15    17 ar  
    28    15    27 1   
    29    16    24 1   
    30    17    25 1   
    31    27    29 1   
@<TRIPOS>SUBSTRUCTURE
     1 IYH         1 TEMP              0 ****  ****    0 ROOT
