@<TRIPOS>MOLECULE
IYJ
   23    24     1     0     0
SMALL
No Charge or Current Charge


@<TRIPOS>ATOM
      1 C10        133.8860   129.9580   132.8380 ca         1 IYJ       0.126000
      2 C13        132.8650   129.0400   133.1700 ca         1 IYJ       0.117000
      3 C15        133.1780   127.6920   133.4100 ca         1 IYJ      -0.092000
      4 C08        135.2380   129.5270   132.7520 cp         1 IYJ      -0.109500
      5 C09        136.3430   130.4700   132.4040 cp         1 IYJ       0.169500
      6 C11        135.5260   128.1590   132.9840 ca         1 IYJ      -0.077000
      7 C12        136.7750   131.5470   133.2500 ca         1 IYJ       0.412900
      8 C14        134.5070   127.2500   133.3140 ca         1 IYJ      -0.103000
      9 C16        138.3480   132.0710   131.7140 ca         1 IYJ       0.366900
     10 N03        136.9880   130.2550   131.2330 nb         1 IYJ      -0.216000
     11 N04        137.7870   132.3570   132.8960 nb         1 IYJ      -0.314000
     12 N05        136.2490   131.8360   134.4860 nv         1 IYJ      -1.069900
     13 N06        138.0030   131.0690   130.8810 nb         1 IYJ      -0.210000
     14 N07        139.3700   132.8710   131.3280 nv         1 IYJ      -1.064900
     15 Cl01       133.4610   131.6390   132.4870 cl         1 IYJ      -0.171000
     16 Cl02       131.1790   129.5500   133.2810 cl         1 IYJ      -0.177000
     17 H1         132.3880   126.9890   133.6640 ha         1 IYJ       0.134000
     18 H2         136.5530   127.8050   132.9130 ha         1 IYJ       0.132000
     19 H3         134.7480   126.2040   133.4950 ha         1 IYJ       0.127000
     20 H4         136.7600   132.4760   135.0890 hn         1 IYJ       0.507000
     21 H5         135.6520   131.1520   134.9470 hn         1 IYJ       0.507000
     22 H6         139.6790   132.8330   130.3590 hn         1 IYJ       0.502500
     23 H7         139.5130   133.7530   131.8180 hn         1 IYJ       0.502500
@<TRIPOS>BOND
     1     1     2 ar  
     2     1     4 ar  
     3     1    15 1   
     4     2     3 ar  
     5     2    16 1   
     6     3     8 ar  
     7     3    17 1   
     8     4     5 1   
     9     4     6 ar  
    10     5     7 ar  
    11     5    10 ar  
    12     6     8 ar  
    13     6    18 1   
    14     7    11 ar  
    15     7    12 1   
    16     8    19 1   
    17     9    11 ar  
    18     9    13 ar  
    19     9    14 1   
    20    10    13 ar  
    21    12    20 1   
    22    12    21 1   
    23    14    22 1   
    24    14    23 1   
@<TRIPOS>SUBSTRUCTURE
     1 IYJ         1 TEMP              0 ****  ****    0 ROOT
