@<TRIPOS>MOLECULE
IYJ
   23    24     1     0     0
SMALL
abcg2


@<TRIPOS>ATOM
      1 C10        133.9130   129.9690   132.7880 ca         1 IYJ       0.126000
      2 C13        132.9040   129.0710   133.1390 ca         1 IYJ       0.117000
      3 C15        133.2150   127.7490   133.4350 ca         1 IYJ      -0.092000
      4 C08        135.2470   129.5440   132.7380 cp         1 IYJ      -0.109500
      5 C09        136.3440   130.4780   132.3840 cp         1 IYJ       0.169500
      6 C11        135.5400   128.2130   133.0320 ca         1 IYJ      -0.077000
      7 C12        136.8170   131.4790   133.2920 ca         1 IYJ       0.412900
      8 C14        134.5330   127.3210   133.3760 ca         1 IYJ      -0.103000
      9 C16        138.3050   132.0890   131.6930 ca         1 IYJ       0.366900
     10 N03        136.9180   130.3390   131.2110 nb         1 IYJ      -0.216000
     11 N04        137.7990   132.2900   132.9180 nb         1 IYJ      -0.314000
     12 N05        136.3040   131.6120   134.5220 nv         1 IYJ      -1.069900
     13 N06        137.9130   131.1340   130.8260 nb         1 IYJ      -0.210000
     14 N07        139.3160   132.8900   131.2960 nv         1 IYJ      -1.064900
     15 CL01       133.5260   131.6150   132.3820 cl         1 IYJ      -0.171000
     16 CL02       131.2400   129.5720   133.2040 cl         1 IYJ      -0.177000
     17 H1         132.4210   127.0670   133.7070 ha         1 IYJ       0.134000
     18 H2         136.5710   127.8880   132.9930 ha         1 IYJ       0.132000
     19 H3         134.7720   126.2910   133.6050 ha         1 IYJ       0.127000
     20 H4         136.6570   132.3300   135.1330 hn         1 IYJ       0.507000
     21 H5         135.5710   131.0100   134.8560 hn         1 IYJ       0.507000
     22 H6         139.6220   132.8540   130.3390 hn         1 IYJ       0.502500
     23 H7         139.5470   133.7000   131.8470 hn         1 IYJ       0.502500
@<TRIPOS>BOND
     1     1     2 ar  
     2     1     4 ar  
     3     1    15 1   
     4     2     3 ar  
     5     2    16 1   
     6     3     8 ar  
     7     3    17 1   
     8     4     5 1   
     9     4     6 ar  
    10     5     7 ar  
    11     5    10 ar  
    12     6     8 ar  
    13     6    18 1   
    14     7    11 ar  
    15     7    12 1   
    16     8    19 1   
    17     9    11 ar  
    18     9    13 ar  
    19     9    14 1   
    20    10    13 ar  
    21    12    20 1   
    22    12    21 1   
    23    14    22 1   
    24    14    23 1   
@<TRIPOS>SUBSTRUCTURE
     1 IYJ         1 TEMP              0 ****  ****    0 ROOT
