@<TRIPOS>MOLECULE
IYL
   85    88     1     0     0
SMALL
No Charge or Current Charge


@<TRIPOS>ATOM
      1 N1          -3.3510    19.5230   -28.7350 ns         1 IYL      -0.503900
      2 C7           0.6080    16.6070   -28.9850 ca         1 IYL      -0.125000
      3 C8           1.2490    17.5000   -29.8820 ca         1 IYL      -0.092600
      4 N2           1.0190    10.8260   -31.8350 nh         1 IYL      -0.332700
      5 C9           0.5670    18.6700   -30.2730 ca         1 IYL      -0.090000
      6 C1           4.5260    15.8400   -22.8440 c3         1 IYL       0.206350
      7 O5           2.8420    17.5020   -31.6140 o          1 IYL      -0.669000
      8 C5           1.9010    15.2090   -27.2620 ca         1 IYL      -0.206500
      9 C6           1.2440    15.3560   -28.5610 cc         1 IYL       0.341000
     10 C4           1.9870    16.2850   -26.3580 ca         1 IYL       0.053500
     11 O4           3.4990    16.8080   -29.6830 o          1 IYL      -0.669000
     12 C3           2.6300    16.1150   -25.1210 ca         1 IYL      -0.226000
     13 O3          -3.2910    17.5980   -27.5390 o          1 IYL      -0.607100
     14 C2           3.1960    14.8790   -24.7670 ca         1 IYL       0.430000
     15 N            3.8430    14.7110   -23.5190 nh         1 IYL      -0.794400
     16 C            3.8640    13.3990   -22.8290 c3         1 IYL       0.206350
     17 O           -5.9880    20.9840   -26.5260 os         1 IYL      -0.443000
     18 C10         -0.7140    18.9630   -29.7800 ca         1 IYL      -0.087000
     19 C11         -1.3560    18.0840   -28.8770 ca         1 IYL      -0.171600
     20 C12         -2.7380    18.3610   -28.3180 c          1 IYL       0.614700
     21 C13         -4.6730    19.9820   -28.2840 c3         1 IYL       0.101000
     22 C14         -4.6660    20.5100   -26.8330 c3         1 IYL       0.133600
     23 C15         -6.1410    21.5040   -25.1910 c3         1 IYL       0.127600
     24 C16         -7.6090    21.9720   -24.9920 c3         1 IYL       0.162600
     25 C17         -8.4520    19.9000   -23.9850 c3         1 IYL       0.158600
     26 C18         -9.5880    18.8710   -24.1700 c3         1 IYL      -0.072400
     27 C19        -11.0080    19.4710   -24.0340 c3         1 IYL      -0.073400
     28 C20        -12.1270    18.4170   -24.1850 c3         1 IYL      -0.083400
     29 C21        -13.5410    19.0170   -24.0510 c3         1 IYL       0.163600
     30 C22         -0.6770    16.9070   -28.4930 ca         1 IYL      -0.064000
     31 C24          3.1110    13.8130   -25.6730 ca         1 IYL      -0.272000
     32 C25          2.4720    13.9810   -26.9050 ca         1 IYL       0.288500
     33 C26          1.7780    13.0230   -28.9660 cd         1 IYL       0.288500
     34 C27          1.1700    14.2470   -29.3990 cd         1 IYL      -0.218300
     35 C28          0.4930    14.3270   -30.6710 cd         1 IYL      -0.002700
     36 C29          0.4600    13.1860   -31.4500 cc         1 IYL      -0.380600
     37 C30          1.0700    11.9570   -31.0260 cc         1 IYL       0.437900
     38 C31          0.8050    10.9160   -33.2940 c3         1 IYL       0.058150
     39 C32          1.1810     9.4640   -31.2870 c3         1 IYL       0.058150
     40 C33          1.7280    11.9090   -29.7580 cc         1 IYL      -0.426600
     41 O2         -14.5200    17.9840   -24.2010 oh         1 IYL      -0.663000
     42 O6           2.4140    12.9230   -27.7680 os         1 IYL      -0.278000
     43 H1          -2.8370    20.1030   -29.3850 hn         1 IYL       0.318500
     44 H2           1.0410    19.3660   -30.9640 ha         1 IYL       0.151000
     45 H3           5.3260    15.4750   -22.1850 h1         1 IYL       0.049533
     46 H4           4.9880    16.5110   -23.5810 h1         1 IYL       0.049533
     47 H5           3.8140    16.4170   -22.2390 h1         1 IYL       0.049533
     48 H6           1.5610    17.2560   -26.6050 ha         1 IYL       0.144000
     49 H8           2.6740    16.9540   -24.4340 ha         1 IYL       0.129000
     50 H9           3.9660    13.5300   -21.7430 h1         1 IYL       0.049533
     51 H10          2.9290    12.8510   -23.0080 h1         1 IYL       0.049533
     52 H11          4.7040    12.7880   -23.1860 h1         1 IYL       0.049533
     53 H12         -1.1920    19.8820   -30.1110 ha         1 IYL       0.112000
     54 H13         -5.0120    20.7820   -28.9550 h1         1 IYL       0.068200
     55 H14         -5.3870    19.1510   -28.3630 h1         1 IYL       0.068200
     56 H15         -4.3740    19.7050   -26.1470 h1         1 IYL       0.026700
     57 H16         -3.9340    21.3240   -26.7450 h1         1 IYL       0.026700
     58 H17         -5.8720    20.7520   -24.4400 h1         1 IYL       0.022700
     59 H18         -5.4780    22.3680   -25.0470 h1         1 IYL       0.022700
     60 H19         -7.6950    22.4810   -24.0220 h1         1 IYL       0.049700
     61 H20         -7.8510    22.7080   -25.7690 h1         1 IYL       0.049700
     62 H21         -7.4920    19.3700   -24.0010 h1         1 IYL       0.019700
     63 H22         -8.5600    20.3950   -23.0110 h1         1 IYL       0.019700
     64 H23         -9.4610    18.0810   -23.4200 hc         1 IYL       0.049200
     65 H24         -9.4810    18.3940   -25.1520 hc         1 IYL       0.049200
     66 H25        -11.1480    20.2520   -24.7920 hc         1 IYL       0.042700
     67 H26        -11.1000    19.9570   -23.0540 hc         1 IYL       0.042700
     68 H27        -11.9940    17.6370   -23.4250 hc         1 IYL       0.051700
     69 H28        -12.0350    17.9310   -25.1650 hc         1 IYL       0.051700
     70 H29        -13.6820    19.7890   -24.8190 h1         1 IYL       0.015200
     71 H30        -13.6400    19.4940   -23.0670 h1         1 IYL       0.015200
     72 H31         -1.1520    16.2090   -27.8050 ha         1 IYL       0.125000
     73 H32          3.5510    12.8510   -25.4360 ha         1 IYL       0.138500
     74 H33          0.0120    15.2370   -31.0270 ha         1 IYL       0.212000
     75 H34         -0.0530    13.2170   -32.4050 ha         1 IYL       0.197000
     76 H35          1.3450    11.7770   -33.7090 h1         1 IYL       0.049533
     77 H36          1.1720    10.0130   -33.8000 h1         1 IYL       0.049533
     78 H37         -0.2640    11.0270   -33.5140 h1         1 IYL       0.049533
     79 H38          2.2450     9.2330   -31.1530 h1         1 IYL       0.049533
     80 H39          0.6740     9.3760   -30.3180 h1         1 IYL       0.049533
     81 H40          0.7460     8.7150   -31.9630 h1         1 IYL       0.049533
     82 H41          2.2020    10.9960   -29.4250 ha         1 IYL       0.206500
     83 H42        -15.4010    18.4120   -24.1080 ho         1 IYL       0.441000
     84 O1          -8.5320    20.8570   -25.0590 os         1 IYL      -0.442000
     85 C23          2.6360    17.2310   -30.4390 c          1 IYL       0.705600
@<TRIPOS>BOND
     1     1    20 1   
     2     1    21 1   
     3     1    43 1   
     4     2     3 ar  
     5     2     9 1   
     6     2    30 ar  
     7     3     5 ar  
     8     3    85 1   
     9     4    37 2   
    10     4    38 1   
    11     4    39 1   
    12     5    18 ar  
    13     5    44 1   
    14     6    15 1   
    15     6    45 1   
    16     6    46 1   
    17     6    47 1   
    18     7    85 1   
    19     8     9 1   
    20     8    10 ar  
    21     8    32 ar  
    22     9    34 2   
    23    10    12 ar  
    24    10    48 1   
    25    11    85 1   
    26    12    14 ar  
    27    12    49 1   
    28    13    20 2   
    29    14    15 1   
    30    14    31 ar  
    31    15    16 1   
    32    16    50 1   
    33    16    51 1   
    34    16    52 1   
    35    17    22 1   
    36    17    23 1   
    37    18    19 ar  
    38    18    53 1   
    39    19    20 1   
    40    19    30 ar  
    41    21    22 1   
    42    21    54 1   
    43    21    55 1   
    44    22    56 1   
    45    22    57 1   
    46    23    24 1   
    47    23    58 1   
    48    23    59 1   
    49    24    60 1   
    50    24    61 1   
    51    24    84 1   
    52    25    26 1   
    53    25    62 1   
    54    25    63 1   
    55    25    84 1   
    56    26    27 1   
    57    26    64 1   
    58    26    65 1   
    59    27    28 1   
    60    27    66 1   
    61    27    67 1   
    62    28    29 1   
    63    28    68 1   
    64    28    69 1   
    65    29    41 1   
    66    29    70 1   
    67    29    71 1   
    68    30    72 1   
    69    31    32 ar  
    70    31    73 1   
    71    32    42 1   
    72    33    34 1   
    73    33    40 2   
    74    33    42 1   
    75    34    35 1   
    76    35    36 2   
    77    35    74 1   
    78    36    37 1   
    79    36    75 1   
    80    37    40 1   
    81    38    76 1   
    82    38    77 1   
    83    38    78 1   
    84    39    79 1   
    85    39    80 1   
    86    39    81 1   
    87    40    82 1   
    88    41    83 1   
@<TRIPOS>SUBSTRUCTURE
     1 IYL         1 TEMP              0 ****  ****    0 ROOT
