@<TRIPOS>MOLECULE
IYL
   85    88     1     0     0
SMALL
bcc


@<TRIPOS>ATOM
      1 N1          -2.9850    19.8500   -28.2990 ns         1 IYL      -0.570900
      2 C7           0.6180    16.8260   -29.1500 ca         1 IYL      -0.125000
      3 C8           1.2440    17.6890   -30.0470 ca         1 IYL      -0.092600
      4 N2           0.2340    10.6550   -31.1520 nh         1 IYL      -0.274100
      5 C9           0.5830    18.8490   -30.4300 ca         1 IYL      -0.108000
      6 C1           4.3640    16.4310   -23.1080 c3         1 IYL       0.206350
      7 O5           3.1220    18.1240   -31.4110 o          1 IYL      -0.774300
      8 C5           1.9330    15.5250   -27.4650 ca         1 IYL      -0.271800
      9 C6           1.2470    15.5660   -28.6890 cc         1 IYL       0.341000
     10 C4           2.2460    16.6700   -26.6970 ca         1 IYL       0.035500
     11 O4           3.1150    16.2940   -30.1250 o          1 IYL      -0.774300
     12 C3           2.9380    16.5820   -25.5290 ca         1 IYL      -0.244000
     13 O3          -3.3980    17.6350   -28.1630 o          1 IYL      -0.607100
     14 C2           3.3800    15.3190   -25.0290 ca         1 IYL       0.291600
     15 N            4.0640    15.2380   -23.8770 nh         1 IYL      -0.656000
     16 C            4.5130    13.9510   -23.3870 c3         1 IYL       0.206350
     17 O           -5.5550    20.6920   -25.8370 os         1 IYL      -0.396600
     18 C10         -0.6680    19.1600   -29.9220 ca         1 IYL      -0.105000
     19 C11         -1.2900    18.2990   -29.0220 ca         1 IYL      -0.171600
     20 C12         -2.6510    18.5580   -28.4560 c          1 IYL       0.681700
     21 C13         -4.2630    20.2730   -27.7730 c3         1 IYL       0.101000
     22 C14         -4.2950    20.2360   -26.2520 c3         1 IYL       0.110400
     23 C15         -5.7410    20.6180   -24.4470 c3         1 IYL       0.104400
     24 C16         -7.1450    21.0740   -24.1050 c3         1 IYL       0.139400
     25 C17         -8.3540    19.0380   -24.1910 c3         1 IYL       0.135400
     26 C18         -9.5770    18.4100   -24.8280 c3         1 IYL      -0.072400
     27 C19        -10.8730    19.1650   -24.5600 c3         1 IYL      -0.073400
     28 C20        -12.0830    18.4810   -25.1810 c3         1 IYL      -0.083400
     29 C21        -13.3630    19.2500   -24.9230 c3         1 IYL       0.140400
     30 C22         -0.6450    17.1230   -28.6550 ca         1 IYL      -0.082000
     31 C24          3.0750    14.1670   -25.7810 ca         1 IYL      -0.355300
     32 C25          2.3740    14.2860   -26.9590 ca         1 IYL       0.463500
     33 C26          1.4200    13.1450   -28.7740 cd         1 IYL       0.398200
     34 C27          0.9550    14.3530   -29.3320 cd         1 IYL      -0.283600
     35 C28          0.2330    14.2530   -30.5430 cd         1 IYL       0.047300
     36 C29         -0.0050    13.0540   -31.1400 cc         1 IYL      -0.330600
     37 C30          0.4710    11.8360   -30.5610 cc         1 IYL       0.437900
     38 C31         -0.4910    10.5860   -32.4060 c3         1 IYL       0.028850
     39 C32          0.7220     9.4310   -30.5500 c3         1 IYL       0.028850
     40 C33          1.1920    11.9180   -29.3540 cc         1 IYL      -0.376600
     41 O2         -14.4430    18.5750   -25.5340 oh         1 IYL      -0.600800
     42 O6           2.1160    13.1480   -27.6250 os         1 IYL      -0.366800
     43 H1          -2.2820    20.5600   -28.4300 hn         1 IYL       0.318500
     44 H2           1.0570    19.5150   -31.1380 ha         1 IYL       0.169000
     45 H3           4.9160    16.1490   -22.2180 h1         1 IYL       0.049533
     46 H4           4.9800    17.1330   -23.6730 h1         1 IYL       0.049533
     47 H5           3.4560    16.9460   -22.7880 h1         1 IYL       0.049533
     48 H6           1.9300    17.6420   -27.0500 ha         1 IYL       0.162000
     49 H8           3.1520    17.4900   -24.9860 ha         1 IYL       0.147000
     50 H9           5.0520    14.0880   -22.4550 h1         1 IYL       0.049533
     51 H10          3.6760    13.2770   -23.1930 h1         1 IYL       0.049533
     52 H11          5.1890    13.4650   -24.0950 h1         1 IYL       0.049533
     53 H12         -1.1590    20.0660   -30.2560 ha         1 IYL       0.130000
     54 H13         -4.4460    21.2880   -28.1240 h1         1 IYL       0.068200
     55 H14         -5.0510    19.6380   -28.1800 h1         1 IYL       0.068200
     56 H15         -4.1120    19.2120   -25.8990 h1         1 IYL       0.026700
     57 H16         -3.4890    20.8660   -25.8480 h1         1 IYL       0.026700
     58 H17         -5.5590    19.5960   -24.0840 h1         1 IYL       0.022700
     59 H18         -5.0340    21.2680   -23.9120 h1         1 IYL       0.022700
     60 H19         -7.2450    21.0630   -23.0110 h1         1 IYL       0.049700
     61 H20         -7.2770    22.1090   -24.4310 h1         1 IYL       0.049700
     62 H21         -7.4810    18.3980   -24.3750 h1         1 IYL       0.019700
     63 H22         -8.4850    19.0880   -23.0990 h1         1 IYL       0.019700
     64 H23         -9.6620    17.3900   -24.4420 hc         1 IYL       0.049200
     65 H24         -9.4180    18.3150   -25.9070 hc         1 IYL       0.049200
     66 H25        -10.7940    20.1840   -24.9470 hc         1 IYL       0.042700
     67 H26        -11.0180    19.2580   -23.4780 hc         1 IYL       0.042700
     68 H27        -12.1800    17.4660   -24.7800 hc         1 IYL       0.051700
     69 H28        -11.9320    18.3810   -26.2610 hc         1 IYL       0.051700
     70 H29        -13.2550    20.2700   -25.3160 h1         1 IYL       0.015200
     71 H30        -13.5140    19.3460   -23.8390 h1         1 IYL       0.015200
     72 H31         -1.1260    16.4400   -27.9660 ha         1 IYL       0.143000
     73 H32          3.3740    13.1810   -25.4570 ha         1 IYL       0.156500
     74 H33         -0.1420    15.1550   -31.0080 ha         1 IYL       0.162000
     75 H34         -0.5600    13.0370   -32.0660 ha         1 IYL       0.147000
     76 H35          0.0220    11.1290   -33.2020 h1         1 IYL       0.049533
     77 H36         -0.5740     9.5480   -32.7110 h1         1 IYL       0.049533
     78 H37         -1.5020    10.9870   -32.3110 h1         1 IYL       0.049533
     79 H38          1.8110     9.4240   -30.4760 h1         1 IYL       0.049533
     80 H39          0.3090     9.2830   -29.5500 h1         1 IYL       0.049533
     81 H40          0.4220     8.5860   -31.1620 h1         1 IYL       0.049533
     82 H41          1.5770    11.0370   -28.8620 ha         1 IYL       0.156500
     83 H42        -15.2450    19.0760   -25.3620 ho         1 IYL       0.402000
     84 O1          -8.1650    20.3300   -24.7210 os         1 IYL      -0.395600
     85 C23          2.6240    17.3460   -30.5850 c          1 IYL       0.916200
@<TRIPOS>BOND
     1     1    20 1   
     2     1    21 1   
     3     1    43 1   
     4     2     3 ar  
     5     2     9 1   
     6     2    30 ar  
     7     3     5 ar  
     8     3    85 1   
     9     4    37 2   
    10     4    38 1   
    11     4    39 1   
    12     5    18 ar  
    13     5    44 1   
    14     6    15 1   
    15     6    45 1   
    16     6    46 1   
    17     6    47 1   
    18     7    85 1   
    19     8     9 1   
    20     8    10 ar  
    21     8    32 ar  
    22     9    34 2   
    23    10    12 ar  
    24    10    48 1   
    25    11    85 1   
    26    12    14 ar  
    27    12    49 1   
    28    13    20 2   
    29    14    15 1   
    30    14    31 ar  
    31    15    16 1   
    32    16    50 1   
    33    16    51 1   
    34    16    52 1   
    35    17    22 1   
    36    17    23 1   
    37    18    19 ar  
    38    18    53 1   
    39    19    20 1   
    40    19    30 ar  
    41    21    22 1   
    42    21    54 1   
    43    21    55 1   
    44    22    56 1   
    45    22    57 1   
    46    23    24 1   
    47    23    58 1   
    48    23    59 1   
    49    24    60 1   
    50    24    61 1   
    51    24    84 1   
    52    25    26 1   
    53    25    62 1   
    54    25    63 1   
    55    25    84 1   
    56    26    27 1   
    57    26    64 1   
    58    26    65 1   
    59    27    28 1   
    60    27    66 1   
    61    27    67 1   
    62    28    29 1   
    63    28    68 1   
    64    28    69 1   
    65    29    41 1   
    66    29    70 1   
    67    29    71 1   
    68    30    72 1   
    69    31    32 ar  
    70    31    73 1   
    71    32    42 1   
    72    33    34 1   
    73    33    40 2   
    74    33    42 1   
    75    34    35 1   
    76    35    36 2   
    77    35    74 1   
    78    36    37 1   
    79    36    75 1   
    80    37    40 1   
    81    38    76 1   
    82    38    77 1   
    83    38    78 1   
    84    39    79 1   
    85    39    80 1   
    86    39    81 1   
    87    40    82 1   
    88    41    83 1   
@<TRIPOS>SUBSTRUCTURE
     1 IYL         1 TEMP              0 ****  ****    0 ROOT
