@<TRIPOS>MOLECULE
IYM
   71    75     1     0     0
SMALL
No Charge or Current Charge


@<TRIPOS>ATOM
      1 C13        131.5780   150.3610   101.7490 c6         1 IYM       0.074000
      2 C15        133.9690   149.6300   101.7580 c          1 IYM       0.632100
      3 C21        136.2130   148.0160   104.1070 c6         1 IYM       0.126600
      4 C22        135.0050   147.7620   103.1660 c6         1 IYM       0.056000
      5 C24        130.7730   147.6520   102.8230 c3         1 IYM      -0.066400
      6 C26        132.0410   147.2250   105.0700 cc         1 IYM      -0.147400
      7 C1         129.2880   143.9600    99.1130 c3         1 IYM      -0.127100
      8 C2         130.1190   144.1880    97.8350 c3         1 IYM       0.163600
      9 O3         131.3390   144.8650    98.1950 os         1 IYM      -0.362100
     10 C4         131.3060   146.1700    98.6400 ca         1 IYM       0.083100
     11 C5         131.7310   146.4180    99.9540 ca         1 IYM      -0.106000
     12 C6         131.6460   147.7100   100.5030 ca         1 IYM      -0.115300
     13 C7         131.1340   148.7740    99.7270 ca         1 IYM      -0.055300
     14 C8         130.7270   148.5300    98.4030 ca         1 IYM      -0.119000
     15 C9         130.8220   147.2440    97.8440 ca         1 IYM       0.084100
     16 O10        130.4480   147.0960    96.5240 os         1 IYM      -0.363100
     17 C11        131.3520   146.5120    95.5670 c3         1 IYM       0.151900
     18 C12        131.0670   150.2070   100.2880 c6         1 IYM      -0.061100
     19 N14        132.6090   149.3350   102.0630 n          1 IYM      -0.355800
     20 O16        134.2670   150.7110   101.2650 o          1 IYM      -0.629100
     21 N17        134.9920   148.6770   101.9880 n          1 IYM      -0.406800
     22 C18        136.3260   148.7840   101.3200 c6         1 IYM       0.056000
     23 C19        137.4690   149.0440   102.3320 c6         1 IYM       0.126600
     24 O20        137.4480   148.0310   103.3600 os         1 IYM      -0.448000
     25 C23        132.0460   147.9520   101.9580 c6         1 IYM       0.138000
     26 C25        130.8640   147.8490   104.3560 c3         1 IYM       0.009800
     27 C27        132.8120   147.8540   106.0450 cd         1 IYM      -0.157100
     28 N28        133.8240   146.9790   106.4990 na         1 IYM      -0.222700
     29 C29        133.6570   145.8070   105.7890 ca         1 IYM      -0.087200
     30 C30        134.4340   144.6450   105.8790 ca         1 IYM      -0.093000
     31 C31        134.0890   143.5500   105.0600 ca         1 IYM      -0.115000
     32 C32        132.9830   143.6270   104.1840 ca         1 IYM       0.112100
     33 O33        132.6960   142.5200   103.4090 os         1 IYM      -0.343100
     34 C34        131.6260   142.5140   102.4480 c3         1 IYM       0.147900
     35 C35        132.2130   144.8150   104.1220 ca         1 IYM      -0.162000
     36 C36        132.5910   145.8970   104.9350 ca         1 IYM      -0.061800
     37 H1         131.9740   151.3750   101.9010 h1         1 IYM       0.061200
     38 H2         130.7360   150.2670   102.4470 h1         1 IYM       0.061200
     39 H3         136.0900   148.9820   104.6190 h1         1 IYM       0.050950
     40 H4         136.2630   147.2290   104.8720 h1         1 IYM       0.050950
     41 H5         134.0980   147.9180   103.7550 h1         1 IYM       0.071950
     42 H6         135.0150   146.7170   102.8250 h1         1 IYM       0.071950
     43 H7         129.9270   148.2490   102.4650 hc         1 IYM       0.044200
     44 H8         130.4530   146.6250   102.6280 hc         1 IYM       0.044200
     45 H9         128.3860   143.3830    98.8790 hc         1 IYM       0.040367
     46 H10        129.8680   143.4010    99.8570 hc         1 IYM       0.040367
     47 H11        128.9750   144.9140    99.5540 hc         1 IYM       0.040367
     48 H12        129.5330   144.7660    97.1090 h1         1 IYM       0.055700
     49 H13        130.3490   143.2150    97.3820 h1         1 IYM       0.055700
     50 H14        132.0970   145.5920   100.5590 ha         1 IYM       0.123000
     51 H15        130.3550   149.3490    97.7920 ha         1 IYM       0.125000
     52 H16        130.9180   146.5570    94.5600 h1         1 IYM       0.038033
     53 H17        132.3030   147.0580    95.5520 h1         1 IYM       0.038033
     54 H18        131.5620   145.4600    95.7920 h1         1 IYM       0.038033
     55 H19        131.6800   150.8510    99.6420 hc         1 IYM       0.063200
     56 H20        130.0430   150.5960   100.2150 hc         1 IYM       0.063200
     57 H21        136.5290   147.8430   100.7890 h1         1 IYM       0.071950
     58 H22        136.3250   149.5800   100.5620 h1         1 IYM       0.071950
     59 H23        138.4400   149.0170   101.8180 h1         1 IYM       0.050950
     60 H24        137.3490   150.0350   102.7930 h1         1 IYM       0.050950
     61 H25        132.7950   147.1990   102.2200 h1         1 IYM       0.085700
     62 H26        130.8690   148.9280   104.5540 hc         1 IYM       0.044700
     63 H27        129.9370   147.4720   104.8060 hc         1 IYM       0.044700
     64 H28        132.7110   148.8610   106.4440 h4         1 IYM       0.214000
     65 H281       134.5170   147.1660   107.2190 hn         1 IYM       0.352000
     66 H29        135.2810   144.5870   106.5580 ha         1 IYM       0.118000
     67 H30        134.6750   142.6360   105.1050 ha         1 IYM       0.128000
     68 H31        131.5810   141.5450   101.9350 h1         1 IYM       0.038367
     69 H32        130.6590   142.6830   102.9390 h1         1 IYM       0.038367
     70 H33        131.7780   143.2930   101.6900 h1         1 IYM       0.038367
     71 H34        131.3520   144.8900   103.4730 ha         1 IYM       0.119000
@<TRIPOS>BOND
     1     1    18 1   
     2     1    19 1   
     3     1    37 1   
     4     1    38 1   
     5     2    19 1   
     6     2    20 2   
     7     2    21 1   
     8     3     4 1   
     9     3    24 1   
    10     3    39 1   
    11     3    40 1   
    12     4    21 1   
    13     4    41 1   
    14     4    42 1   
    15     5    25 1   
    16     5    26 1   
    17     5    43 1   
    18     5    44 1   
    19     6    26 1   
    20     6    27 2   
    21     6    36 1   
    22     7     8 1   
    23     7    45 1   
    24     7    46 1   
    25     7    47 1   
    26     8     9 1   
    27     8    48 1   
    28     8    49 1   
    29     9    10 1   
    30    10    11 ar  
    31    10    15 ar  
    32    11    12 ar  
    33    11    50 1   
    34    12    13 ar  
    35    12    25 1   
    36    13    14 ar  
    37    13    18 1   
    38    14    15 ar  
    39    14    51 1   
    40    15    16 1   
    41    16    17 1   
    42    17    52 1   
    43    17    53 1   
    44    17    54 1   
    45    18    55 1   
    46    18    56 1   
    47    19    25 1   
    48    21    22 1   
    49    22    23 1   
    50    22    57 1   
    51    22    58 1   
    52    23    24 1   
    53    23    59 1   
    54    23    60 1   
    55    25    61 1   
    56    26    62 1   
    57    26    63 1   
    58    27    28 1   
    59    27    64 1   
    60    28    29 1   
    61    28    65 1   
    62    29    30 ar  
    63    29    36 ar  
    64    30    31 ar  
    65    30    66 1   
    66    31    32 ar  
    67    31    67 1   
    68    32    33 1   
    69    32    35 ar  
    70    33    34 1   
    71    34    68 1   
    72    34    69 1   
    73    34    70 1   
    74    35    36 ar  
    75    35    71 1   
@<TRIPOS>SUBSTRUCTURE
     1 IYM         1 TEMP              0 ****  ****    0 ROOT
