@<TRIPOS>MOLECULE
IYM
   71    75     1     0     0
SMALL
abcg2


@<TRIPOS>ATOM
      1 C13        131.6850   150.2340   101.7640 c6         1 IYM       0.074000
      2 C15        133.9200   149.3990   101.6220 c          1 IYM       0.632100
      3 C21        136.0890   148.2160   103.9670 c6         1 IYM       0.126600
      4 C22        134.9500   147.6790   103.1110 c6         1 IYM       0.056000
      5 C24        130.7920   147.6350   102.8170 c3         1 IYM      -0.066400
      6 C26        132.0400   147.2500   105.0340 cc         1 IYM      -0.147400
      7 C1         129.6260   143.7150    99.3290 c3         1 IYM      -0.127100
      8 C2         130.1050   144.2350    97.9890 c3         1 IYM       0.163600
      9 O3         131.3480   144.9370    98.0740 os         1 IYM      -0.362100
     10 C4         131.2860   146.1800    98.6210 ca         1 IYM       0.083100
     11 C5         131.6690   146.3910    99.9360 ca         1 IYM      -0.106000
     12 C6         131.6550   147.6640   100.4980 ca         1 IYM      -0.115300
     13 C7         131.2460   148.7570    99.7380 ca         1 IYM      -0.055300
     14 C8         130.8730   148.5430    98.4130 ca         1 IYM      -0.119000
     15 C9         130.8790   147.2760    97.8520 ca         1 IYM       0.084100
     16 O10        130.4760   147.0980    96.5640 os         1 IYM      -0.363100
     17 C11        131.5280   147.1300    95.6120 c3         1 IYM       0.151900
     18 C12        131.2260   150.1560   100.3040 c6         1 IYM      -0.061100
     19 N14        132.6370   149.1870   102.1150 n          1 IYM      -0.355800
     20 O16        134.1960   150.4030   100.9790 o          1 IYM      -0.629100
     21 N17        134.8530   148.4300   101.8700 n          1 IYM      -0.406800
     22 C18        136.1320   148.4990   101.1820 c6         1 IYM       0.056000
     23 C19        137.2140   149.0380   102.0990 c6         1 IYM       0.126600
     24 O20        137.3140   148.2600   103.2720 os         1 IYM      -0.448000
     25 C23        132.0360   147.8590   101.9470 c6         1 IYM       0.138000
     26 C25        130.9130   147.9200   104.3140 c3         1 IYM       0.009800
     27 C27        132.8490   147.8610   105.9560 cd         1 IYM      -0.157100
     28 N28        133.7790   146.9850   106.4300 na         1 IYM      -0.222700
     29 C29        133.6020   145.7770   105.8170 ca         1 IYM      -0.087200
     30 C30        134.3160   144.5870   105.9460 ca         1 IYM      -0.093000
     31 C31        133.9280   143.5130   105.1770 ca         1 IYM      -0.115000
     32 C32        132.8370   143.6090   104.2870 ca         1 IYM       0.112100
     33 O33        132.5690   142.4800   103.5870 os         1 IYM      -0.343100
     34 C34        131.5600   142.5300   102.6050 c3         1 IYM       0.147900
     35 C35        132.1220   144.7860   104.1650 ca         1 IYM      -0.162000
     36 C36        132.5070   145.8970   104.9370 ca         1 IYM      -0.061800
     37 H1         132.1180   151.2090   101.9730 h1         1 IYM       0.061200
     38 H2         130.8290   150.1360   102.4320 h1         1 IYM       0.061200
     39 H3         135.8160   149.2160   104.3340 h1         1 IYM       0.050950
     40 H4         136.2270   147.5680   104.8340 h1         1 IYM       0.050950
     41 H5         134.0320   147.7570   103.6860 h1         1 IYM       0.071950
     42 H6         135.1110   146.6200   102.8830 h1         1 IYM       0.071950
     43 H7         129.9530   148.2190   102.4310 hc         1 IYM       0.044200
     44 H8         130.4950   146.5970   102.6570 hc         1 IYM       0.044200
     45 H9         128.7080   143.1440    99.1870 hc         1 IYM       0.040367
     46 H10        130.3640   143.0550    99.7850 hc         1 IYM       0.040367
     47 H11        129.4060   144.5220   100.0280 hc         1 IYM       0.040367
     48 H12        129.3390   144.8680    97.5310 h1         1 IYM       0.055700
     49 H13        130.2900   143.4050    97.3080 h1         1 IYM       0.055700
     50 H14        131.9970   145.5440   100.5310 ha         1 IYM       0.123000
     51 H15        130.5590   149.3820    97.7990 ha         1 IYM       0.125000
     52 H16        131.0810   146.9790    94.6310 h1         1 IYM       0.038033
     53 H17        132.0430   148.0950    95.6170 h1         1 IYM       0.038033
     54 H18        132.2630   146.3410    95.7880 h1         1 IYM       0.038033
     55 H19        131.8580   150.7910    99.6810 hc         1 IYM       0.063200
     56 H20        130.2160   150.5650   100.2260 hc         1 IYM       0.063200
     57 H21        136.3970   147.4850   100.8650 h1         1 IYM       0.071950
     58 H22        136.0530   149.1110   100.2870 h1         1 IYM       0.071950
     59 H23        138.1840   149.0020   101.6010 h1         1 IYM       0.050950
     60 H24        136.9990   150.0880   102.3450 h1         1 IYM       0.050950
     61 H25        132.7660   147.0970   102.2170 h1         1 IYM       0.085700
     62 H26        130.9980   148.9980   104.4720 hc         1 IYM       0.044700
     63 H27        129.9570   147.6330   104.7640 hc         1 IYM       0.044700
     64 H28        132.8300   148.8830   106.3020 h4         1 IYM       0.214000
     65 H281       134.4960   147.2050   107.1000 hn         1 IYM       0.352000
     66 H29        135.1570   144.5040   106.6230 ha         1 IYM       0.118000
     67 H30        134.4650   142.5760   105.2460 ha         1 IYM       0.128000
     68 H31        131.5360   141.5520   102.1300 h1         1 IYM       0.038367
     69 H32        130.5740   142.7350   103.0330 h1         1 IYM       0.038367
     70 H33        131.7710   143.2860   101.8410 h1         1 IYM       0.038367
     71 H34        131.2800   144.8620   103.4920 ha         1 IYM       0.119000
@<TRIPOS>BOND
     1     1    18 1   
     2     1    19 1   
     3     1    37 1   
     4     1    38 1   
     5     2    19 1   
     6     2    20 2   
     7     2    21 1   
     8     3     4 1   
     9     3    24 1   
    10     3    39 1   
    11     3    40 1   
    12     4    21 1   
    13     4    41 1   
    14     4    42 1   
    15     5    25 1   
    16     5    26 1   
    17     5    43 1   
    18     5    44 1   
    19     6    26 1   
    20     6    27 2   
    21     6    36 1   
    22     7     8 1   
    23     7    45 1   
    24     7    46 1   
    25     7    47 1   
    26     8     9 1   
    27     8    48 1   
    28     8    49 1   
    29     9    10 1   
    30    10    11 ar  
    31    10    15 ar  
    32    11    12 ar  
    33    11    50 1   
    34    12    13 ar  
    35    12    25 1   
    36    13    14 ar  
    37    13    18 1   
    38    14    15 ar  
    39    14    51 1   
    40    15    16 1   
    41    16    17 1   
    42    17    52 1   
    43    17    53 1   
    44    17    54 1   
    45    18    55 1   
    46    18    56 1   
    47    19    25 1   
    48    21    22 1   
    49    22    23 1   
    50    22    57 1   
    51    22    58 1   
    52    23    24 1   
    53    23    59 1   
    54    23    60 1   
    55    25    61 1   
    56    26    62 1   
    57    26    63 1   
    58    27    28 1   
    59    27    64 1   
    60    28    29 1   
    61    28    65 1   
    62    29    30 ar  
    63    29    36 ar  
    64    30    31 ar  
    65    30    66 1   
    66    31    32 ar  
    67    31    67 1   
    68    32    33 1   
    69    32    35 ar  
    70    33    34 1   
    71    34    68 1   
    72    34    69 1   
    73    34    70 1   
    74    35    36 ar  
    75    35    71 1   
@<TRIPOS>SUBSTRUCTURE
     1 IYM         1 TEMP              0 ****  ****    0 ROOT
