@<TRIPOS>MOLECULE
IYN
   46    49     1     0     0
SMALL
bcc


@<TRIPOS>ATOM
      1 C1          33.5320   -47.6160    -6.8990 ca         1 IYN       0.454200
      2 N2          32.7110   -47.7640    -7.9320 nb         1 IYN      -0.757000
      3 C3          32.1690   -48.9670    -8.1530 ca         1 IYN       0.699200
      4 C4          32.4510   -50.0680    -7.3140 ca         1 IYN      -0.325300
      5 C5          33.3100   -49.8830    -6.2530 ca         1 IYN      -0.049000
      6 C6          33.8760   -48.6300    -6.0250 ca         1 IYN      -0.317300
      7 N7          31.3380   -49.0830    -9.2120 nh         1 IYN      -0.802300
      8 C8          29.7700   -48.5060   -10.8530 c5         1 IYN      -0.084700
      9 C9          30.1110   -49.9890   -10.9770 c5         1 IYN      -0.091400
     10 C10         30.7290   -50.3330    -9.6280 c5         1 IYN       0.232800
     11 C11         30.9440   -47.9590   -10.0400 c5         1 IYN       0.238800
     12 C12         30.6790   -43.7810   -17.3080 ca         1 IYN      -0.122000
     13 C13         29.3770   -43.7240   -17.8470 ca         1 IYN      -0.121000
     14 C14         28.3030   -44.1730   -17.1250 ca         1 IYN      -0.159300
     15 C15         30.8910   -44.2870   -16.0530 ca         1 IYN      -0.157300
     16 C16         29.8010   -44.7560   -15.2930 ca         1 IYN       0.290300
     17 C17         28.4980   -44.6990   -15.8310 ca         1 IYN       0.293300
     18 N18         27.4380   -45.1460   -15.1170 nb         1 IYN      -0.640000
     19 C19         27.6520   -45.6360   -13.9280 ca         1 IYN       0.326300
     20 C20         28.9810   -45.6960   -13.3800 ca         1 IYN       0.320300
     21 N21         30.0080   -45.2620   -14.0540 nb         1 IYN      -0.636000
     22 C24         29.5600   -47.8100   -12.1860 c3         1 IYN      -0.065400
     23 H25         33.9430   -46.6200    -6.7650 h4         1 IYN       0.012100
     24 H26         32.0010   -51.0350    -7.4880 ha         1 IYN       0.136000
     25 H27         33.5370   -50.7150    -5.5990 ha         1 IYN       0.129000
     26 H28         34.5530   -48.4490    -5.2020 ha         1 IYN       0.140000
     27 H29         28.8590   -48.4070   -10.2520 hc         1 IYN       0.054700
     28 H31         29.2440   -50.6080   -11.2060 hc         1 IYN       0.055200
     29 H30         30.8450   -50.1360   -11.7740 hc         1 IYN       0.055200
     30 H32         31.4690   -51.1330    -9.7110 h1         1 IYN       0.043700
     31 H33         29.9680   -50.6630    -8.9120 h1         1 IYN       0.043700
     32 H35         30.6650   -47.0960    -9.4340 h1         1 IYN       0.057700
     33 H34         31.7640   -47.6390   -10.6980 h1         1 IYN       0.057700
     34 H36         31.5140   -43.4210   -17.8950 ha         1 IYN       0.137000
     35 H37         29.2300   -43.3210   -18.8410 ha         1 IYN       0.136000
     36 H38         27.2980   -44.1350   -17.5260 ha         1 IYN       0.150000
     37 H39         31.8850   -44.3390   -15.6260 ha         1 IYN       0.151000
     38 H41         25.5700   -46.0420   -13.7380 hc         1 IYN       0.055033
     39 H40         26.6000   -47.1690   -12.8460 hc         1 IYN       0.055033
     40 H42         26.3430   -45.5480   -12.2280 hc         1 IYN       0.055033
     41 H45         30.4560   -47.9270   -12.8040 hc         1 IYN       0.050200
     42 H46         28.7470   -48.3060   -12.7230 hc         1 IYN       0.050200
     43 C23         29.2460   -46.3160   -12.0410 c3         1 IYN      -0.129700
     44 C22         26.4770   -46.1260   -13.1440 c3         1 IYN      -0.146400
     45 H43         30.0970   -45.8030   -11.5890 hc         1 IYN       0.062700
     46 H44         28.3960   -46.1840   -11.3700 hc         1 IYN       0.062700
@<TRIPOS>BOND
     1     1     2 ar  
     2     1     6 ar  
     3     1    23 1   
     4     2     3 ar  
     5     3     4 ar  
     6     3     7 1   
     7     4     5 ar  
     8     4    24 1   
     9     5     6 ar  
    10     5    25 1   
    11     6    26 1   
    12     7    10 1   
    13     7    11 1   
    14     8     9 1   
    15     8    11 1   
    16     8    22 1   
    17     8    27 1   
    18     9    10 1   
    19     9    28 1   
    20     9    29 1   
    21    10    30 1   
    22    10    31 1   
    23    11    32 1   
    24    11    33 1   
    25    12    13 ar  
    26    12    15 ar  
    27    12    34 1   
    28    13    14 ar  
    29    13    35 1   
    30    14    17 ar  
    31    14    36 1   
    32    15    16 ar  
    33    15    37 1   
    34    16    17 ar  
    35    16    21 ar  
    36    17    18 ar  
    37    18    19 ar  
    38    19    20 ar  
    39    19    44 1   
    40    20    21 ar  
    41    20    43 1   
    42    22    41 1   
    43    22    42 1   
    44    22    43 1   
    45    38    44 1   
    46    39    44 1   
    47    40    44 1   
    48    43    45 1   
    49    43    46 1   
@<TRIPOS>SUBSTRUCTURE
     1 IYN         1 TEMP              0 ****  ****    0 ROOT
