@<TRIPOS>MOLECULE
IYN
   46    49     1     0     0
SMALL
No Charge or Current Charge


@<TRIPOS>ATOM
      1 C1          33.7890   -47.7320    -6.9140 ca         1 IYN       0.388900
      2 N2          32.9430   -47.8890    -7.9530 nb         1 IYN      -0.757000
      3 C3          32.2330   -49.0300    -8.0210 ca         1 IYN       0.633900
      4 C4          32.3400   -50.0500    -7.0560 ca         1 IYN      -0.242000
      5 C5          33.2190   -49.8870    -5.9770 ca         1 IYN      -0.031000
      6 C6          33.9570   -48.6990    -5.9110 ca         1 IYN      -0.234000
      7 N7          31.3730   -49.1280    -9.1280 nh         1 IYN      -0.802300
      8 C8          29.8640   -48.5330   -10.8450 c5         1 IYN      -0.084700
      9 C9          30.1890   -50.0470   -10.9390 c5         1 IYN      -0.091400
     10 C10         30.6250   -50.3580    -9.4850 c5         1 IYN       0.232800
     11 C11         31.1200   -48.0180   -10.0870 c5         1 IYN       0.238800
     12 C12         30.5880   -43.5660   -17.3910 ca         1 IYN      -0.104000
     13 C13         29.2880   -43.5150   -17.9140 ca         1 IYN      -0.103000
     14 C14         28.2150   -44.0420   -17.1760 ca         1 IYN      -0.076000
     15 C15         30.8150   -44.1440   -16.1310 ca         1 IYN      -0.074000
     16 C16         29.7520   -44.6770   -15.3760 ca         1 IYN       0.225000
     17 C17         28.4210   -44.6250   -15.9110 ca         1 IYN       0.228000
     18 N18         27.3590   -45.1250   -15.2260 nb         1 IYN      -0.640000
     19 C19         27.6190   -45.6760   -14.0110 ca         1 IYN       0.326300
     20 C20         28.9450   -45.7260   -13.4770 ca         1 IYN       0.320300
     21 N21         30.0100   -45.2270   -14.1600 nb         1 IYN      -0.636000
     22 C24         29.5930   -47.8540   -12.2110 c3         1 IYN      -0.065400
     23 H25         34.3520   -46.7990    -6.8840 h4         1 IYN       0.012100
     24 H26         31.7490   -50.9550    -7.1350 ha         1 IYN       0.118000
     25 H27         33.3230   -50.6570    -5.2150 ha         1 IYN       0.111000
     26 H28         34.6530   -48.5210    -5.0960 ha         1 IYN       0.122000
     27 H29         28.9670   -48.3820   -10.2310 hc         1 IYN       0.054700
     28 H31         29.3290   -50.6500   -11.2510 hc         1 IYN       0.055200
     29 H30         31.0030   -50.2430   -11.6470 hc         1 IYN       0.055200
     30 H32         31.2490   -51.2620    -9.4430 h1         1 IYN       0.043700
     31 H33         29.7570   -50.4980    -8.8260 h1         1 IYN       0.043700
     32 H35         30.9160   -47.0610    -9.5850 h1         1 IYN       0.057700
     33 H34         31.9740   -47.8810   -10.7670 h1         1 IYN       0.057700
     34 H36         31.4210   -43.1590   -17.9610 ha         1 IYN       0.119000
     35 H37         29.1100   -43.0690   -18.8900 ha         1 IYN       0.118000
     36 H38         27.2090   -43.9990   -17.5870 ha         1 IYN       0.132000
     37 H39         31.8250   -44.1800   -15.7320 ha         1 IYN       0.133000
     38 H41         25.5000   -46.1890   -13.8830 hc         1 IYN       0.055033
     39 H40         26.5630   -47.2710   -12.9780 hc         1 IYN       0.055033
     40 H42         26.2130   -45.6470   -12.3580 hc         1 IYN       0.055033
     41 H45         30.4610   -47.9900   -12.8690 hc         1 IYN       0.050200
     42 H46         28.7560   -48.3630   -12.7040 hc         1 IYN       0.050200
     43 C23         29.2720   -46.3430   -12.1170 c3         1 IYN      -0.129700
     44 C22         26.4080   -46.2260   -13.2680 c3         1 IYN      -0.146400
     45 H43         30.1290   -45.8210   -11.6730 hc         1 IYN       0.062700
     46 H44         28.4410   -46.1910   -11.4190 hc         1 IYN       0.062700
@<TRIPOS>BOND
     1     1     2 ar  
     2     1     6 ar  
     3     1    23 1   
     4     2     3 ar  
     5     3     4 ar  
     6     3     7 1   
     7     4     5 ar  
     8     4    24 1   
     9     5     6 ar  
    10     5    25 1   
    11     6    26 1   
    12     7    10 1   
    13     7    11 1   
    14     8     9 1   
    15     8    11 1   
    16     8    22 1   
    17     8    27 1   
    18     9    10 1   
    19     9    28 1   
    20     9    29 1   
    21    10    30 1   
    22    10    31 1   
    23    11    32 1   
    24    11    33 1   
    25    12    13 ar  
    26    12    15 ar  
    27    12    34 1   
    28    13    14 ar  
    29    13    35 1   
    30    14    17 ar  
    31    14    36 1   
    32    15    16 ar  
    33    15    37 1   
    34    16    17 ar  
    35    16    21 ar  
    36    17    18 ar  
    37    18    19 ar  
    38    19    20 ar  
    39    19    44 1   
    40    20    21 ar  
    41    20    43 1   
    42    22    41 1   
    43    22    42 1   
    44    22    43 1   
    45    38    44 1   
    46    39    44 1   
    47    40    44 1   
    48    43    45 1   
    49    43    46 1   
@<TRIPOS>SUBSTRUCTURE
     1 IYN         1 TEMP              0 ****  ****    0 ROOT
