@<TRIPOS>MOLECULE
IYQ
   35    37     1     0     0
SMALL
abcg2


@<TRIPOS>ATOM
      1 C10        -23.5990    30.5320   -22.9600 c3         1 IYQ       0.137900
      2 C13        -26.3640    32.0520   -25.0810 ca         1 IYQ      -0.121000
      3 C15        -24.3510    33.3410   -25.4100 ca         1 IYQ      -0.154600
      4 C20        -21.8300    29.2550   -24.2600 cc         1 IYQ       0.403700
      5 C02        -25.1940    26.5690   -23.8510 ca         1 IYQ       0.286000
      6 C04        -23.2400    26.0970   -24.9610 ca         1 IYQ       0.457900
      7 C06        -22.9070    23.9120   -26.0460 c3         1 IYQ       0.222100
      8 C07        -22.8070    27.3950   -24.6080 ca         1 IYQ      -0.101600
      9 C08        -23.6940    28.1670   -23.8640 ca         1 IYQ       0.135500
     10 C11        -24.3440    31.4410   -23.9060 ca         1 IYQ      -0.135300
     11 C12        -25.6900    31.2190   -24.1940 ca         1 IYQ      -0.056000
     12 C14        -25.7010    33.1140   -25.6800 ca         1 IYQ      -0.043000
     13 C19        -23.6820    32.5000   -24.5200 ca         1 IYQ      -0.071000
     14 N03        -24.4710    25.7120   -24.5550 nb         1 IYQ      -0.283000
     15 N05        -22.4900    25.2520   -25.6720 nu         1 IYQ      -0.907100
     16 N09        -23.0530    29.3580   -23.6420 na         1 IYQ      -0.282300
     17 N17        -22.3460    34.4320   -26.2290 nt         1 IYQ      -0.605000
     18 N21        -21.6410    28.0960   -24.8480 nd         1 IYQ      -0.549100
     19 N22        -24.9190    27.7930   -23.4550 nb         1 IYQ      -0.212000
     20 O18        -24.3300    35.4900   -26.4410 o          1 IYQ      -0.603100
     21 H102       -24.2550    30.1700   -22.1700 h1         1 IYQ       0.075200
     22 H101       -22.7630    31.0570   -22.5000 h1         1 IYQ       0.075200
     23 H131       -27.4090    31.8750   -25.2990 ha         1 IYQ       0.125000
     24 H201       -21.1250    30.0720   -24.2350 h5         1 IYQ       0.064800
     25 H062       -22.1020    23.4560   -26.6160 h1         1 IYQ       0.048700
     26 H063       -23.1090    23.3020   -25.1630 h1         1 IYQ       0.048700
     27 H061       -23.8090    23.9390   -26.6590 h1         1 IYQ       0.048700
     28 H121       -26.2080    30.3940   -23.7220 ha         1 IYQ       0.137000
     29 H141       -26.2200    33.7720   -26.3630 ha         1 IYQ       0.139000
     30 H191       -22.6430    32.6780   -24.2730 ha         1 IYQ       0.105000
     31 H051       -21.5760    25.5690   -25.9500 hn         1 IYQ       0.517000
     32 H171       -21.8660    35.1910   -26.6860 hn         1 IYQ       0.315000
     33 H172       -21.8280    33.5900   -26.0430 hn         1 IYQ       0.315000
     34 C16        -23.6820    34.5100   -26.0700 c          1 IYQ       0.612700
     35 CL01       -26.7800    25.9700   -23.3730 cl         1 IYQ      -0.147000
@<TRIPOS>BOND
     1     1    10 1   
     2     1    16 1   
     3     1    21 1   
     4     1    22 1   
     5     2    11 ar  
     6     2    12 ar  
     7     2    23 1   
     8     3    12 ar  
     9     3    13 ar  
    10     3    34 1   
    11     4    16 1   
    12     4    18 2   
    13     4    24 1   
    14     5    14 ar  
    15     5    19 ar  
    16     5    35 1   
    17     6     8 ar  
    18     6    14 ar  
    19     6    15 1   
    20     7    15 1   
    21     7    25 1   
    22     7    26 1   
    23     7    27 1   
    24     8     9 ar  
    25     8    18 1   
    26     9    16 1   
    27     9    19 ar  
    28    10    11 ar  
    29    10    13 ar  
    30    11    28 1   
    31    12    29 1   
    32    13    30 1   
    33    15    31 1   
    34    17    32 1   
    35    17    33 1   
    36    17    34 1   
    37    20    34 2   
@<TRIPOS>SUBSTRUCTURE
     1 IYQ         1 TEMP              0 ****  ****    0 ROOT
