@<TRIPOS>MOLECULE
IYQ
   35    37     1     0     0
SMALL
No Charge or Current Charge


@<TRIPOS>ATOM
      1 C10        -23.5990    30.5300   -22.8450 c3         1 IYQ       0.137900
      2 C13        -26.4840    32.2190   -24.7140 ca         1 IYQ      -0.121000
      3 C15        -24.3840    33.1870   -25.5190 ca         1 IYQ      -0.154600
      4 C20        -21.7110    29.2260   -24.0210 cc         1 IYQ       0.403700
      5 C02        -25.3480    26.6730   -24.1030 ca         1 IYQ       0.286000
      6 C04        -23.2850    26.1950   -24.9790 ca         1 IYQ       0.457900
      7 C06        -22.7450    24.0030   -26.2120 c3         1 IYQ       0.222100
      8 C07        -22.8330    27.4490   -24.5170 ca         1 IYQ      -0.101600
      9 C08        -23.7230    28.2540   -23.8500 ca         1 IYQ       0.135500
     10 C11        -24.3710    31.4420   -23.7900 ca         1 IYQ      -0.135300
     11 C12        -25.7760    31.3850   -23.8370 ca         1 IYQ      -0.056000
     12 C14        -25.7950    33.1140   -25.5490 ca         1 IYQ      -0.043000
     13 C19        -23.6800    32.3390   -24.6290 ca         1 IYQ      -0.071000
     14 N03        -24.5560    25.8020   -24.7710 nb         1 IYQ      -0.283000
     15 N05        -22.4320    25.3340   -25.6620 nu         1 IYQ      -0.907100
     16 N09        -23.0100    29.3740   -23.5360 na         1 IYQ      -0.282300
     17 N17        -22.3220    34.2150   -26.3860 nt         1 IYQ      -0.605000
     18 N21        -21.5640    28.0350   -24.6350 nd         1 IYQ      -0.549100
     19 N22        -25.0000    27.8900   -23.6250 nb         1 IYQ      -0.212000
     20 O18        -24.2640    34.8940   -27.2060 o          1 IYQ      -0.603100
     21 H102       -24.2630    30.1690   -22.0470 h1         1 IYQ       0.075200
     22 H101       -22.7960    31.1020   -22.3620 h1         1 IYQ       0.075200
     23 H131       -27.5700    32.1720   -24.7490 ha         1 IYQ       0.125000
     24 H201       -20.9510    29.9910   -23.9030 h5         1 IYQ       0.064800
     25 H062       -21.8610    23.5670   -26.6970 h1         1 IYQ       0.048700
     26 H063       -23.0710    23.3220   -25.4140 h1         1 IYQ       0.048700
     27 H061       -23.5490    24.0730   -26.9580 h1         1 IYQ       0.048700
     28 H121       -26.3190    30.6910   -23.1970 ha         1 IYQ       0.137000
     29 H141       -26.3640    33.7520   -26.2230 ha         1 IYQ       0.139000
     30 H191       -22.5950    32.3640   -24.5790 ha         1 IYQ       0.105000
     31 H051       -21.4840    25.7000   -25.7840 hn         1 IYQ       0.517000
     32 H171       -21.8360    34.8600   -26.9900 hn         1 IYQ       0.315000
     33 H172       -21.8110    33.6200   -25.7540 hn         1 IYQ       0.315000
     34 C16        -23.6710    34.1600   -26.4330 c          1 IYQ       0.612700
     35 Cl01       -27.0080    26.1700   -23.8290 cl         1 IYQ      -0.147000
@<TRIPOS>BOND
     1     1    10 1   
     2     1    16 1   
     3     1    21 1   
     4     1    22 1   
     5     2    11 ar  
     6     2    12 ar  
     7     2    23 1   
     8     3    12 ar  
     9     3    13 ar  
    10     3    34 1   
    11     4    16 1   
    12     4    18 2   
    13     4    24 1   
    14     5    14 ar  
    15     5    19 ar  
    16     5    35 1   
    17     6     8 ar  
    18     6    14 ar  
    19     6    15 1   
    20     7    15 1   
    21     7    25 1   
    22     7    26 1   
    23     7    27 1   
    24     8     9 ar  
    25     8    18 1   
    26     9    16 1   
    27     9    19 ar  
    28    10    11 ar  
    29    10    13 ar  
    30    11    28 1   
    31    12    29 1   
    32    13    30 1   
    33    15    31 1   
    34    17    32 1   
    35    17    33 1   
    36    17    34 1   
    37    20    34 2   
@<TRIPOS>SUBSTRUCTURE
     1 IYQ         1 TEMP              0 ****  ****    0 ROOT
