@<TRIPOS>MOLECULE
IYS
   51    55     1     0     0
SMALL
No Charge or Current Charge


@<TRIPOS>ATOM
      1 N1          92.9500    -9.0390    12.7910 n          1 IYS      -0.399400
      2 N2          95.8610   -12.1490    10.2460 n          1 IYS      -0.258500
      3 C3          95.9600   -13.2300     9.3610 c          1 IYS       0.580600
      4 C4          94.7320   -11.3070    10.1970 cc         1 IYS       0.526900
      5 C5          92.8020    -7.6630    12.6130 c          1 IYS       0.586100
      6 C6          92.8930    -9.4320    14.1280 c          1 IYS       0.586100
      7 N7          93.7460   -11.3850     9.2960 nd         1 IYS      -0.644100
      8 C8          94.8620   -13.3780     8.3790 ca         1 IYS      -0.203600
      9 C9          92.6660    -7.1090    13.9910 ca         1 IYS      -0.147100
     10 C10         92.7200    -8.1640    14.8950 ca         1 IYS      -0.147100
     11 C11         93.8280   -12.4370     8.3840 ca         1 IYS       0.193400
     12 C12         94.5350   -10.2540    11.2770 c3         1 IYS      -0.140700
     13 C13         93.0640    -9.9920    11.6720 c3         1 IYS       0.123000
     14 C14         96.9820   -11.8330    11.1070 ca         1 IYS      -0.020400
     15 O16         92.9700   -10.5700    14.5670 o          1 IYS      -0.484000
     16 O17         92.7890    -7.0520    11.5550 o          1 IYS      -0.484000
     17 C18         97.4620   -12.7940    12.0210 ca         1 IYS      -0.055500
     18 C19         97.5710   -10.5500    11.0970 ca         1 IYS      -0.055500
     19 C20         94.8640   -14.4310     7.4350 ca         1 IYS      -0.040000
     20 C21         99.1050   -11.2090    12.8770 ca         1 IYS       0.153100
     21 C22         98.6270   -10.2390    11.9710 ca         1 IYS      -0.170000
     22 C23         98.5170   -12.4820    12.8950 ca         1 IYS      -0.170000
     23 C24         92.5030    -5.7840    14.4200 ca         1 IYS      -0.045500
     24 C25         92.6140    -7.9530    16.2770 ca         1 IYS      -0.045500
     25 C26         92.7930   -12.5540     7.4380 ca         1 IYS      -0.106000
     26 O27        100.1370   -10.9620    13.7590 os         1 IYS      -0.338100
     27 C28        100.8040    -9.6880    13.8220 c3         1 IYS       0.147900
     28 C29         93.8260   -14.5380     6.4970 ca         1 IYS      -0.136000
     29 C30         92.4510    -6.6250    16.7290 ca         1 IYS      -0.098500
     30 C31         92.3960    -5.5500    15.8080 ca         1 IYS      -0.098500
     31 C32         92.7870   -13.5960     6.4970 ca         1 IYS      -0.074000
     32 H1          95.0560   -10.5490    12.1940 hc         1 IYS       0.076200
     33 H2          94.9770    -9.3090    10.9450 hc         1 IYS       0.076200
     34 H3          92.5890   -10.9410    11.9570 h1         1 IYS       0.083200
     35 H4          92.5110    -9.5970    10.8090 h1         1 IYS       0.083200
     36 H5          97.0080   -13.7820    12.0630 ha         1 IYS       0.126500
     37 H6          97.2270    -9.7950    10.3930 ha         1 IYS       0.126500
     38 H7          95.6690   -15.1640     7.4240 ha         1 IYS       0.135000
     39 H8          99.0610    -9.2440    11.9280 ha         1 IYS       0.128000
     40 H9          98.8780   -13.2310    13.5950 ha         1 IYS       0.128000
     41 H10         92.4600    -4.9630    13.7060 ha         1 IYS       0.138500
     42 H11         92.6570    -8.7840    16.9780 ha         1 IYS       0.138500
     43 H12         91.9830   -11.8280     7.4370 ha         1 IYS       0.132000
     44 H13        101.5880    -9.7080    14.5890 h1         1 IYS       0.043033
     45 H14        101.2750    -9.4460    12.8610 h1         1 IYS       0.043033
     46 H15        100.0970    -8.8900    14.0800 h1         1 IYS       0.043033
     47 H16         93.8290   -15.3480     5.7710 ha         1 IYS       0.119000
     48 H17         92.3660    -6.4270    17.7950 ha         1 IYS       0.123000
     49 H18         92.2690    -4.5330    16.1730 ha         1 IYS       0.123000
     50 H19         91.9790   -13.6730     5.7720 ha         1 IYS       0.117000
     51 O15         96.9180   -13.9940     9.3600 o          1 IYS      -0.517000
@<TRIPOS>BOND
     1     1     5 1   
     2     1     6 1   
     3     1    13 1   
     4     2     3 1   
     5     2     4 1   
     6     2    14 1   
     7     3     8 1   
     8     3    51 2   
     9     4     7 2   
    10     4    12 1   
    11     5     9 1   
    12     5    16 2   
    13     6    10 1   
    14     6    15 2   
    15     7    11 1   
    16     8    11 ar  
    17     8    19 ar  
    18     9    10 ar  
    19     9    23 ar  
    20    10    24 ar  
    21    11    25 ar  
    22    12    13 1   
    23    12    32 1   
    24    12    33 1   
    25    13    34 1   
    26    13    35 1   
    27    14    17 ar  
    28    14    18 ar  
    29    17    22 ar  
    30    17    36 1   
    31    18    21 ar  
    32    18    37 1   
    33    19    28 ar  
    34    19    38 1   
    35    20    21 ar  
    36    20    22 ar  
    37    20    26 1   
    38    21    39 1   
    39    22    40 1   
    40    23    30 ar  
    41    23    41 1   
    42    24    29 ar  
    43    24    42 1   
    44    25    31 ar  
    45    25    43 1   
    46    26    27 1   
    47    27    44 1   
    48    27    45 1   
    49    27    46 1   
    50    28    31 ar  
    51    28    47 1   
    52    29    30 ar  
    53    29    48 1   
    54    30    49 1   
    55    31    50 1   
@<TRIPOS>SUBSTRUCTURE
     1 IYS         1 TEMP              0 ****  ****    0 ROOT
