@<TRIPOS>MOLECULE
IYS
   51    55     1     0     0
SMALL
bcc


@<TRIPOS>ATOM
      1 N1          92.8450    -9.1200    12.7830 n          1 IYS      -0.533400
      2 N2          95.8320   -12.0510    10.2390 n          1 IYS      -0.325500
      3 C3          96.1280   -12.9100     9.1810 c          1 IYS       0.723100
      4 C4          94.5720   -11.5290    10.4370 cc         1 IYS       0.526900
      5 C5          93.1350    -7.7700    12.6560 c          1 IYS       0.728600
      6 C6          92.4760    -9.4560    14.0770 c          1 IYS       0.728600
      7 N7          93.5720   -11.7900     9.6780 nd         1 IYS      -0.644100
      8 C8          94.9960   -13.1980     8.3120 ca         1 IYS      -0.203600
      9 C9          92.9190    -7.1790    13.9980 ca         1 IYS      -0.147100
     10 C10         92.5210    -8.1930    14.8530 ca         1 IYS      -0.147100
     11 C11         93.7540   -12.6220     8.6010 ca         1 IYS       0.193400
     12 C12         94.3850   -10.6040    11.6010 c3         1 IYS      -0.140700
     13 C13         92.9610   -10.0700    11.6980 c3         1 IYS       0.123000
     14 C14         96.9040   -11.7200    11.1260 ca         1 IYS      -0.020400
     15 O16         92.1850   -10.5610    14.4560 o          1 IYS      -0.559500
     16 O17         93.4870    -7.2260    11.6410 o          1 IYS      -0.559500
     17 C18         97.1740   -12.5270    12.2240 ca         1 IYS      -0.073500
     18 C19         97.6740   -10.5970    10.8890 ca         1 IYS      -0.073500
     19 C20         95.1470   -14.0330     7.2000 ca         1 IYS      -0.058000
     20 C21         98.9810   -11.0630    12.8560 ca         1 IYS       0.153100
     21 C22         98.7100   -10.2590    11.7500 ca         1 IYS      -0.188000
     22 C23         98.2040   -12.2020    13.0840 ca         1 IYS      -0.188000
     23 C24         93.0630    -5.8790    14.4330 ca         1 IYS      -0.063500
     24 C25         92.2450    -7.9530    16.1820 ca         1 IYS      -0.063500
     25 C26         92.6640   -12.8950     7.7650 ca         1 IYS      -0.124000
     26 O27         99.9570   -10.8230    13.7450 os         1 IYS      -0.314900
     27 C28        100.7480    -9.6620    13.5870 c3         1 IYS       0.124700
     28 C29         94.0670   -14.2920     6.3850 ca         1 IYS      -0.154000
     29 C30         92.3860    -6.6430    16.6350 ca         1 IYS      -0.116500
     30 C31         92.7890    -5.6240    15.7760 ca         1 IYS      -0.116500
     31 C32         92.8230   -13.7190     6.6720 ca         1 IYS      -0.092000
     32 H1          94.6560   -11.1210    12.5260 hc         1 IYS       0.076200
     33 H2          95.0840    -9.7680    11.5110 hc         1 IYS       0.076200
     34 H3          92.2490   -10.8740    11.8710 h1         1 IYS       0.083200
     35 H4          92.6670    -9.5740    10.7750 h1         1 IYS       0.083200
     36 H5          96.5740   -13.4090    12.4090 ha         1 IYS       0.144500
     37 H6          97.4680    -9.9680    10.0330 ha         1 IYS       0.144500
     38 H7          96.1130   -14.4710     6.9870 ha         1 IYS       0.153000
     39 H8          99.2890    -9.3710    11.5390 ha         1 IYS       0.146000
     40 H9          98.4150   -12.8290    13.9410 ha         1 IYS       0.146000
     41 H10         93.3740    -5.0870    13.7650 ha         1 IYS       0.156500
     42 H11         91.9320    -8.7450    16.8500 ha         1 IYS       0.156500
     43 H12         91.7060   -12.4460     7.9930 ha         1 IYS       0.150000
     44 H13        101.4470    -9.6500    14.4200 h1         1 IYS       0.043033
     45 H14        101.3150    -9.6770    12.6530 h1         1 IYS       0.043033
     46 H15        100.1450    -8.7510    13.6210 h1         1 IYS       0.043033
     47 H16         94.1790   -14.9370     5.5240 ha         1 IYS       0.137000
     48 H17         92.1800    -6.4110    17.6710 ha         1 IYS       0.141000
     49 H18         92.8910    -4.6180    16.1590 ha         1 IYS       0.141000
     50 H19         91.9780   -13.9240     6.0280 ha         1 IYS       0.135000
     51 O15         97.2490   -13.3540     9.0350 o          1 IYS      -0.592500
@<TRIPOS>BOND
     1     1     5 1   
     2     1     6 1   
     3     1    13 1   
     4     2     3 1   
     5     2     4 1   
     6     2    14 1   
     7     3     8 1   
     8     3    51 2   
     9     4     7 2   
    10     4    12 1   
    11     5     9 1   
    12     5    16 2   
    13     6    10 1   
    14     6    15 2   
    15     7    11 1   
    16     8    11 ar  
    17     8    19 ar  
    18     9    10 ar  
    19     9    23 ar  
    20    10    24 ar  
    21    11    25 ar  
    22    12    13 1   
    23    12    32 1   
    24    12    33 1   
    25    13    34 1   
    26    13    35 1   
    27    14    17 ar  
    28    14    18 ar  
    29    17    22 ar  
    30    17    36 1   
    31    18    21 ar  
    32    18    37 1   
    33    19    28 ar  
    34    19    38 1   
    35    20    21 ar  
    36    20    22 ar  
    37    20    26 1   
    38    21    39 1   
    39    22    40 1   
    40    23    30 ar  
    41    23    41 1   
    42    24    29 ar  
    43    24    42 1   
    44    25    31 ar  
    45    25    43 1   
    46    26    27 1   
    47    27    44 1   
    48    27    45 1   
    49    27    46 1   
    50    28    31 ar  
    51    28    47 1   
    52    29    30 ar  
    53    29    48 1   
    54    30    49 1   
    55    31    50 1   
@<TRIPOS>SUBSTRUCTURE
     1 IYS         1 TEMP              0 ****  ****    0 ROOT
