@<TRIPOS>MOLECULE
IYT
   42    42     1     0     0
SMALL
No Charge or Current Charge


@<TRIPOS>ATOM
      1 CAN          0.3930    -3.9950    -1.5580 c3         1 IYT      -0.178100
      2 CN           1.1730    -2.9520    -0.7680 c          1 IYT       0.604100
      3 ON           1.5420    -3.1470     0.3810 o          1 IYT      -0.601100
      4 N            1.4150    -1.7800    -1.4540 ns         1 IYT      -0.487900
      5 CA           2.1340    -0.5920    -0.9240 c3         1 IYT       0.037700
      6 CB           1.5020    -0.0300     0.3840 c3         1 IYT      -0.051100
      7 CG          -0.0200     0.0720     0.3150 ca         1 IYT      -0.098300
      8 CD1         -0.8290    -0.7680     1.1080 ca         1 IYT      -0.026500
      9 CE1         -2.2290    -0.6840     1.0310 ca         1 IYT       0.122500
     10 CD2         -0.6320     1.0000    -0.5510 ca         1 IYT      -0.026500
     11 CE2         -2.0330     1.0870    -0.6290 ca         1 IYT       0.122500
     12 CZ          -2.8420     0.2430     0.1630 ca         1 IYT       0.187100
     13 OH          -4.2130     0.3210     0.0900 oh         1 IYT      -0.520100
     14 I1          -3.4410    -2.0070     2.2610 i          1 IYT      -0.317000
     15 I2          -2.9190     2.5390    -1.9910 i          1 IYT      -0.317000
     16 C            3.6750    -0.8460    -0.8160 c          1 IYT       0.591100
     17 O            4.2180    -1.8870    -1.1720 o          1 IYT      -0.648100
     18 NT           4.4090     0.2040    -0.3030 ns         1 IYT      -0.452900
     19 CAT          5.8700     0.1820    -0.0250 c3         1 IYT      -0.035300
     20 CBT          6.2180    -0.6790     1.2230 c3         1 IYT       0.175300
     21 OGT          5.5530    -0.1750     2.3880 oh         1 IYT      -0.640000
     22 CGT          7.7290    -0.7780     1.5150 c3         1 IYT      -0.116100
     23 CT           6.4350     1.6340     0.0630 c          1 IYT       0.731000
     24 OX1          7.5210     1.8560    -0.4580 o          1 IYT      -0.722500
     25 OX2          5.6960     2.5300     0.4540 o          1 IYT      -0.722500
     26 HAN1         0.9180    -4.1980    -2.4990 hc         1 IYT       0.052700
     27 HAN2         0.2150    -4.9140    -0.9870 hc         1 IYT       0.052700
     28 HAN3        -0.5450    -3.5490    -1.9070 hc         1 IYT       0.052700
     29 H            1.0720    -1.7450    -2.4070 hn         1 IYT       0.311500
     30 HA           2.0260     0.1920    -1.6850 h1         1 IYT       0.054700
     31 HB2          1.8060    -0.6590     1.2290 hc         1 IYT       0.083700
     32 HB3          1.9180     0.9630     0.5940 hc         1 IYT       0.083700
     33 HD1         -0.3760    -1.4920     1.7810 ha         1 IYT       0.141000
     34 HD2         -0.0230     1.6550    -1.1690 ha         1 IYT       0.141000
     35 HH          -4.5890    -0.3410     0.7120 ho         1 IYT       0.478000
     36 HNT          3.9020     1.0420    -0.0420 hn         1 IYT       0.347500
     37 HAT          6.3580    -0.2830    -0.8910 h1         1 IYT       0.058700
     38 HBT          5.8630    -1.6990     1.0260 h1         1 IYT       0.017700
     39 HGT          5.7370    -0.8060     3.1150 ho         1 IYT       0.410000
     40 HGT1         7.9180    -1.4810     2.3360 hc         1 IYT       0.034700
     41 HGT2         8.2670    -1.1410     0.6310 hc         1 IYT       0.034700
     42 HGT3         8.1460     0.1960     1.7990 hc         1 IYT       0.034700
@<TRIPOS>BOND
     1     1     2 1   
     2     1    26 1   
     3     1    27 1   
     4     1    28 1   
     5     2     3 2   
     6     2     4 1   
     7     4     5 1   
     8     4    29 1   
     9     5     6 1   
    10     5    16 1   
    11     5    30 1   
    12     6     7 1   
    13     6    31 1   
    14     6    32 1   
    15     7     8 ar  
    16     7    10 ar  
    17     8     9 ar  
    18     8    33 1   
    19     9    12 ar  
    20     9    14 1   
    21    10    11 ar  
    22    10    34 1   
    23    11    12 ar  
    24    11    15 1   
    25    12    13 1   
    26    13    35 1   
    27    16    17 2   
    28    16    18 1   
    29    18    19 1   
    30    18    36 1   
    31    19    20 1   
    32    19    23 1   
    33    19    37 1   
    34    20    21 1   
    35    20    22 1   
    36    20    38 1   
    37    21    39 1   
    38    22    40 1   
    39    22    41 1   
    40    22    42 1   
    41    23    24 1   
    42    23    25 1   
@<TRIPOS>SUBSTRUCTURE
     1 IYT         1 TEMP              0 ****  ****    0 ROOT
