@<TRIPOS>MOLECULE
IYT
   42    42     1     0     0
SMALL
abcg2


@<TRIPOS>ATOM
      1 CAN          0.7340    -4.0240    -0.9140 c3         1 IYT      -0.178100
      2 CN           1.4840    -2.8130    -0.4210 c          1 IYT       0.604100
      3 ON           2.0760    -2.8070     0.6500 o          1 IYT      -0.601100
      4 N            1.4350    -1.7360    -1.2200 ns         1 IYT      -0.487900
      5 CA           2.0830    -0.4940    -0.8950 c3         1 IYT       0.037700
      6 CB           1.4320     0.2240     0.3040 c3         1 IYT      -0.051100
      7 CG          -0.0640     0.2590     0.1780 ca         1 IYT      -0.098300
      8 CD1         -0.8570    -0.6720     0.8330 ca         1 IYT      -0.026500
      9 CE1         -2.2350    -0.6690     0.6750 ca         1 IYT       0.122500
     10 CD2         -0.6880     1.1980    -0.6370 ca         1 IYT      -0.026500
     11 CE2         -2.0620     1.1960    -0.7920 ca         1 IYT       0.122500
     12 CZ          -2.8760     0.2630    -0.1440 ca         1 IYT       0.187100
     13 OH          -4.1930     0.3340    -0.3480 oh         1 IYT      -0.520100
     14 I1          -3.3620    -2.1190     1.7050 i          1 IYT      -0.317000
     15 I2          -2.9610     2.6320    -2.0330 i          1 IYT      -0.317000
     16 C            3.6030    -0.7050    -0.7870 c          1 IYT       0.591100
     17 O            4.1520    -1.5750    -1.4480 o          1 IYT      -0.648100
     18 NT           4.2610     0.1560    -0.0100 ns         1 IYT      -0.452900
     19 CAT          5.7010     0.2110     0.1030 c3         1 IYT      -0.035300
     20 CBT          6.2160    -0.8690     1.0640 c3         1 IYT       0.175300
     21 OGT          5.8530    -0.4700     2.3720 oh         1 IYT      -0.640000
     22 CGT          7.7080    -1.1340     0.9400 c3         1 IYT      -0.116100
     23 CT           6.1030     1.6350     0.5660 c          1 IYT       0.731000
     24 OX1          7.3080     1.9230     0.4750 o          1 IYT      -0.722500
     25 OX2          5.1850     2.3670     0.9880 o          1 IYT      -0.722500
     26 HAN1         0.3140    -3.9030    -1.9110 hc         1 IYT       0.052700
     27 HAN2         1.3980    -4.8880    -0.9190 hc         1 IYT       0.052700
     28 HAN3        -0.0810    -4.2470    -0.2240 hc         1 IYT       0.052700
     29 H            0.9520    -1.7990    -2.0990 hn         1 IYT       0.311500
     30 HA           1.9460     0.1500    -1.7690 h1         1 IYT       0.054700
     31 HB2          1.7170    -0.2600     1.2370 hc         1 IYT       0.083700
     32 HB3          1.8020     1.2510     0.3450 hc         1 IYT       0.083700
     33 HD1         -0.3910    -1.4080     1.4760 ha         1 IYT       0.141000
     34 HD2         -0.0880     1.9370    -1.1540 ha         1 IYT       0.141000
     35 HH          -4.6740    -0.3790     0.0920 ho         1 IYT       0.478000
     36 HNT          3.7900     0.9080     0.4710 hn         1 IYT       0.347500
     37 HAT          6.1420     0.0190    -0.8790 h1         1 IYT       0.058700
     38 HBT          5.6940    -1.7980     0.7970 h1         1 IYT       0.017700
     39 HGT          6.1200    -1.1650     2.9810 ho         1 IYT       0.410000
     40 HGT1         8.0040    -1.9510     1.6020 hc         1 IYT       0.034700
     41 HGT2         7.9600    -1.4350    -0.0780 hc         1 IYT       0.034700
     42 HGT3         8.2960    -0.2540     1.1900 hc         1 IYT       0.034700
@<TRIPOS>BOND
     1     1     2 1   
     2     1    26 1   
     3     1    27 1   
     4     1    28 1   
     5     2     3 2   
     6     2     4 1   
     7     4     5 1   
     8     4    29 1   
     9     5     6 1   
    10     5    16 1   
    11     5    30 1   
    12     6     7 1   
    13     6    31 1   
    14     6    32 1   
    15     7     8 ar  
    16     7    10 ar  
    17     8     9 ar  
    18     8    33 1   
    19     9    12 ar  
    20     9    14 1   
    21    10    11 ar  
    22    10    34 1   
    23    11    12 ar  
    24    11    15 1   
    25    12    13 1   
    26    13    35 1   
    27    16    17 2   
    28    16    18 1   
    29    18    19 1   
    30    18    36 1   
    31    19    20 1   
    32    19    23 1   
    33    19    37 1   
    34    20    21 1   
    35    20    22 1   
    36    20    38 1   
    37    21    39 1   
    38    22    40 1   
    39    22    41 1   
    40    22    42 1   
    41    23    24 1   
    42    23    25 1   
@<TRIPOS>SUBSTRUCTURE
     1 IYT         1 TEMP              0 ****  ****    0 ROOT
