@<TRIPOS>MOLECULE
IYU
   89    92     1     0     0
SMALL
No Charge or Current Charge


@<TRIPOS>ATOM
      1 N1          23.8460    -3.1080     4.7740 n7         1 IYU      -0.910300
      2 C7          24.1350    -1.2330     3.2050 c3         1 IYU      -0.078400
      3 C8          24.6370    -2.6290     3.6300 c3         1 IYU       0.212800
      4 N2          31.2660     9.2210    10.8590 nh         1 IYU      -0.336700
      5 C9          23.8730    -5.7250     4.1660 c3         1 IYU      -0.349100
      6 O1          26.5940     3.6700     0.3180 os         1 IYU      -0.469000
      7 C1          28.2960     5.1620     1.2680 c3         1 IYU       0.069000
      8 O5          30.1200    12.7570     5.5130 o          1 IYU      -0.685500
      9 C5          26.3310    -0.3350     2.1390 c3         1 IYU       0.155600
     10 C6          24.8280    -0.6610     1.9440 c3         1 IYU      -0.111400
     11 N3          23.6620    13.9260     7.3590 nh         1 IYU      -0.798400
     12 C4          26.4920     1.2520     0.2270 c3         1 IYU       0.150600
     13 O4          25.6730    -4.5330     5.7410 o          1 IYU      -0.550500
     14 C3          26.8480     2.4820     1.0980 c3         1 IYU       0.129600
     15 O3          23.2680    -4.7610     6.5480 o          1 IYU      -0.550500
     16 C2          26.7870     4.9290     1.0010 c3         1 IYU       0.137600
     17 N           28.5830     6.5050     1.7930 ns         1 IYU      -0.504900
     18 C           28.2600     6.9420     3.0590 c          1 IYU       0.613700
     19 O           27.7120     6.2010     3.8630 o          1 IYU      -0.618100
     20 C10         28.6190     8.3760     3.3970 ca         1 IYU      -0.175600
     21 C11         29.2490     9.2360     2.4680 ca         1 IYU      -0.082000
     22 C12         29.5600    10.5600     2.8180 ca         1 IYU      -0.096000
     23 C13         29.2640    11.0640     4.1010 ca         1 IYU      -0.072600
     24 C14         29.6170    12.5050     4.4270 c          1 IYU       0.694600
     25 C15         28.6340    10.2070     5.0400 ca         1 IYU      -0.131000
     26 C16         28.2560    10.6810     6.3750 cc         1 IYU       0.320000
     27 C17         29.0250    10.2990     7.4710 cd         1 IYU      -0.214800
     28 C18         30.2040     9.4840     7.2970 cd         1 IYU       0.001300
     29 C19         30.9190     9.1440     8.4290 cc         1 IYU      -0.377100
     30 C20         30.5240     9.5810     9.7390 cc         1 IYU       0.443400
     31 C21         32.6860     8.8260    10.7640 c3         1 IYU       0.058650
     32 C22         30.6820     9.2160    12.2160 c3         1 IYU       0.058650
     33 C23         29.3560    10.3940     9.8760 cc         1 IYU      -0.425600
     34 C24         28.6280    10.7470     8.7730 cd         1 IYU       0.289500
     35 C25         27.0730    11.5120     6.6070 ca         1 IYU      -0.203000
     36 C26         26.2410    11.9170     5.5450 ca         1 IYU       0.057500
     37 C27         25.1150    12.7160     5.7990 ca         1 IYU      -0.222500
     38 C28         26.7490    11.9160     7.9080 ca         1 IYU       0.289500
     39 C29         25.6270    12.7100     8.1590 ca         1 IYU      -0.271000
     40 C30         24.7990    13.1210     7.1060 ca         1 IYU       0.435500
     41 C31         23.1600    14.8920     6.3520 c3         1 IYU       0.206850
     42 C32         22.9210    13.8390     8.6410 c3         1 IYU       0.206850
     43 C33         28.3140     8.8830     4.6780 ca         1 IYU      -0.060000
     44 O2          26.9300     0.0260     0.8720 os         1 IYU      -0.460000
     45 O6          29.4230    13.3500     3.5650 o          1 IYU      -0.685500
     46 O7          27.5320    11.5300     8.9600 os         1 IYU      -0.283000
     47 S           24.2350    -4.5660     5.4690 s6         1 IYU       1.215100
     48 H1          24.0100    -2.4930     5.5690 hn         1 IYU       0.489000
     49 H2          24.2620    -0.5290     4.0370 hc         1 IYU       0.051700
     50 H3          23.0580    -1.2950     3.0080 hc         1 IYU       0.051700
     51 H4          24.5350    -3.3110     2.7750 h1         1 IYU       0.050700
     52 H5          25.7030    -2.5720     3.8890 h1         1 IYU       0.050700
     53 H6          22.8330    -5.5660     3.8660 h1         1 IYU       0.103367
     54 H7          24.5640    -5.5330     3.3400 h1         1 IYU       0.103367
     55 H8          24.0200    -6.7300     4.5750 h1         1 IYU       0.103367
     56 H9          28.6660     4.4220     1.9900 h1         1 IYU       0.064200
     57 H10         28.8520     5.0290     0.3310 h1         1 IYU       0.064200
     58 H12         26.8410    -1.2230     2.5320 h1         1 IYU       0.046200
     59 H13         26.4490     0.4620     2.8860 h1         1 IYU       0.046200
     60 H14         24.2930     0.2520     1.6580 hc         1 IYU       0.053200
     61 H15         24.7150    -1.3720     1.1160 hc         1 IYU       0.053200
     62 H16         27.0020     1.3550    -0.7390 h1         1 IYU       0.053200
     63 H17         25.4140     1.2400     0.0240 h1         1 IYU       0.053200
     64 H18         26.2330     2.4840     2.0070 h1         1 IYU       0.036700
     65 H19         27.9050     2.4190     1.3880 h1         1 IYU       0.036700
     66 H20         26.4140     5.7490     0.3730 h1         1 IYU       0.052200
     67 H21         26.2290     4.9530     1.9460 h1         1 IYU       0.052200
     68 H22         29.0410     7.1720     1.1850 hn         1 IYU       0.318500
     69 H23         29.5030     8.8990     1.4660 ha         1 IYU       0.110000
     70 H24         30.0430    11.2030     2.0840 ha         1 IYU       0.151000
     71 H25         30.5410     9.1380     6.3200 ha         1 IYU       0.216000
     72 H26         31.8000     8.5200     8.3260 ha         1 IYU       0.199000
     73 H27         33.1940     8.9540    11.7290 h1         1 IYU       0.051450
     74 H28         32.7680     7.7730    10.4650 h1         1 IYU       0.051450
     75 H29         33.2090     9.4460    10.0250 h1         1 IYU       0.051450
     76 H30         31.2560     8.5630    12.8870 h1         1 IYU       0.051450
     77 H31         30.6830    10.2310    12.6340 h1         1 IYU       0.051450
     78 H32         29.6490     8.8440    12.1890 h1         1 IYU       0.051450
     79 H33         29.0510    10.7470    10.8520 ha         1 IYU       0.207000
     80 H34         26.4540    11.6150     4.5200 ha         1 IYU       0.148000
     81 H35         24.4810    13.0080     4.9680 ha         1 IYU       0.131000
     82 H36         25.4150    13.0130     9.1780 ha         1 IYU       0.139000
     83 H37         22.6230    15.7190     6.8380 h1         1 IYU       0.051450
     84 H38         23.9920    15.3300     5.7850 h1         1 IYU       0.051450
     85 H39         22.4750    14.3980     5.6500 h1         1 IYU       0.051450
     86 H40         23.3760    14.4940     9.3960 h1         1 IYU       0.051450
     87 H41         21.8730    14.1390     8.5070 h1         1 IYU       0.051450
     88 H42         22.9220    12.8090     9.0210 h1         1 IYU       0.051450
     89 H43         27.8190     8.2440     5.4080 ha         1 IYU       0.124000
@<TRIPOS>BOND
     1     1     3 1   
     2     1    47 1   
     3     1    48 1   
     4     2     3 1   
     5     2    10 1   
     6     2    49 1   
     7     2    50 1   
     8     3    51 1   
     9     3    52 1   
    10     4    30 2   
    11     4    31 1   
    12     4    32 1   
    13     5    47 1   
    14     5    53 1   
    15     5    54 1   
    16     5    55 1   
    17     6    14 1   
    18     6    16 1   
    19     7    16 1   
    20     7    17 1   
    21     7    56 1   
    22     7    57 1   
    23     8    24 1   
    24     9    10 1   
    25     9    44 1   
    26     9    58 1   
    27     9    59 1   
    28    10    60 1   
    29    10    61 1   
    30    11    40 1   
    31    11    41 1   
    32    11    42 1   
    33    12    14 1   
    34    12    44 1   
    35    12    62 1   
    36    12    63 1   
    37    13    47 2   
    38    14    64 1   
    39    14    65 1   
    40    15    47 2   
    41    16    66 1   
    42    16    67 1   
    43    17    18 1   
    44    17    68 1   
    45    18    19 2   
    46    18    20 1   
    47    20    21 ar  
    48    20    43 ar  
    49    21    22 ar  
    50    21    69 1   
    51    22    23 ar  
    52    22    70 1   
    53    23    24 1   
    54    23    25 ar  
    55    24    45 1   
    56    25    26 1   
    57    25    43 ar  
    58    26    27 2   
    59    26    35 1   
    60    27    28 1   
    61    27    34 1   
    62    28    29 2   
    63    28    71 1   
    64    29    30 1   
    65    29    72 1   
    66    30    33 1   
    67    31    73 1   
    68    31    74 1   
    69    31    75 1   
    70    32    76 1   
    71    32    77 1   
    72    32    78 1   
    73    33    34 2   
    74    33    79 1   
    75    34    46 1   
    76    35    36 ar  
    77    35    38 ar  
    78    36    37 ar  
    79    36    80 1   
    80    37    40 ar  
    81    37    81 1   
    82    38    39 ar  
    83    38    46 1   
    84    39    40 ar  
    85    39    82 1   
    86    41    83 1   
    87    41    84 1   
    88    41    85 1   
    89    42    86 1   
    90    42    87 1   
    91    42    88 1   
    92    43    89 1   
@<TRIPOS>SUBSTRUCTURE
     1 IYU         1 TEMP              0 ****  ****    0 ROOT
