@<TRIPOS>MOLECULE
IYU
   89    92     1     0     0
SMALL
abcg2


@<TRIPOS>ATOM
      1 N1          23.2730    -4.0690     3.8190 n7         1 IYU      -0.910300
      2 C7          23.9160    -2.1860     2.3870 c3         1 IYU      -0.078400
      3 C8          24.4180    -3.3280     3.2640 c3         1 IYU       0.212800
      4 N2          31.5660     9.8190    10.8640 nh         1 IYU      -0.336700
      5 C9          23.5210    -6.6450     3.1390 c3         1 IYU      -0.349100
      6 O1          26.4660     3.6870     1.1580 os         1 IYU      -0.469000
      7 C1          28.1690     5.3910     1.5900 c3         1 IYU       0.069000
      8 O5          29.7830    13.1450     5.4480 o          1 IYU      -0.685500
      9 C5          25.7950    -0.4760     2.6820 c3         1 IYU       0.155600
     10 C6          25.0490    -1.3980     1.7230 c3         1 IYU      -0.111400
     11 N3          23.7710    13.8880     7.4050 nh         1 IYU      -0.798400
     12 C4          26.5270     1.3220     1.2610 c3         1 IYU       0.150600
     13 O4          24.8330    -5.6120     5.1370 o          1 IYU      -0.550500
     14 C3          26.8150     2.6080     2.0180 c3         1 IYU       0.129600
     15 O3          22.3610    -5.7950     5.3400 o          1 IYU      -0.550500
     16 C2          26.6980     4.9790     1.6990 c3         1 IYU       0.137600
     17 N           28.3690     6.7730     1.9860 ns         1 IYU      -0.504900
     18 C           28.6580     7.1490     3.2480 c          1 IYU       0.613700
     19 O           28.7590     6.3440     4.1770 o          1 IYU      -0.618100
     20 C10         28.8620     8.6180     3.4660 ca         1 IYU      -0.175600
     21 C11         29.3280     9.4740     2.4670 ca         1 IYU      -0.082000
     22 C12         29.5110    10.8210     2.7370 ca         1 IYU      -0.096000
     23 C13         29.2490    11.3520     3.9980 ca         1 IYU      -0.072600
     24 C14         29.5020    12.8340     4.2650 c          1 IYU       0.694600
     25 C15         28.7860    10.4920     5.0040 ca         1 IYU      -0.131000
     26 C16         28.4390    10.9750     6.3640 cc         1 IYU       0.320000
     27 C17         29.2430    10.6430     7.4660 cd         1 IYU      -0.214800
     28 C18         30.4700     9.9370     7.3750 cd         1 IYU       0.001300
     29 C19         31.2280     9.6650     8.4750 cc         1 IYU      -0.377100
     30 C20         30.8140    10.0890     9.7790 cc         1 IYU       0.443400
     31 C21         32.8270     9.0940    10.7420 c3         1 IYU       0.058650
     32 C22         31.1390    10.2670    12.1840 c3         1 IYU       0.058650
     33 C23         29.6000    10.8030     9.8890 cc         1 IYU      -0.425600
     34 C24         28.8560    11.0660     8.7630 cd         1 IYU       0.289500
     35 C25         27.2470    11.6840     6.5820 ca         1 IYU      -0.203000
     36 C26         26.3350    12.0460     5.5570 ca         1 IYU       0.057500
     37 C27         25.2060    12.7620     5.8190 ca         1 IYU      -0.222500
     38 C28         26.9070    12.0890     7.8970 ca         1 IYU       0.289500
     39 C29         25.7730    12.8090     8.1890 ca         1 IYU      -0.271000
     40 C30         24.8860    13.1760     7.1530 ca         1 IYU       0.435500
     41 C31         22.8660    14.2710     6.3260 c3         1 IYU       0.206850
     42 C32         23.4470    14.2890     8.7690 c3         1 IYU       0.206850
     43 C33         28.5990     9.1390     4.7300 ca         1 IYU      -0.060000
     44 O2          26.8870     0.1920     2.0460 os         1 IYU      -0.460000
     45 O6          29.4180    13.6070     3.2820 o          1 IYU      -0.685500
     46 O7          27.7120    11.7740     8.9450 os         1 IYU      -0.283000
     47 S           23.5240    -5.5330     4.5180 s6         1 IYU       1.215100
     48 H1          22.6500    -3.5130     4.3960 hn         1 IYU       0.489000
     49 H2          23.2960    -1.5120     2.9880 hc         1 IYU       0.051700
     50 H3          23.2670    -2.6080     1.6160 hc         1 IYU       0.051700
     51 H4          25.0040    -4.0190     2.6570 h1         1 IYU       0.050700
     52 H5          25.0640    -2.9620     4.0640 h1         1 IYU       0.050700
     53 H6          22.5420    -6.6070     2.6670 h1         1 IYU       0.103367
     54 H7          24.3020    -6.3440     2.4430 h1         1 IYU       0.103367
     55 H8          23.7300    -7.6380     3.5340 h1         1 IYU       0.103367
     56 H9          28.7940     4.7620     2.2200 h1         1 IYU       0.064200
     57 H10         28.4950     5.2800     0.5550 h1         1 IYU       0.064200
     58 H12         26.2370    -1.0430     3.5020 h1         1 IYU       0.046200
     59 H13         25.1050     0.2570     3.1170 h1         1 IYU       0.046200
     60 H14         24.6300    -0.7980     0.9110 hc         1 IYU       0.053200
     61 H15         25.7660    -2.0880     1.2700 hc         1 IYU       0.053200
     62 H16         27.1220     1.2980     0.3440 h1         1 IYU       0.053200
     63 H17         25.4720     1.2890     0.9760 h1         1 IYU       0.053200
     64 H18         26.2220     2.6530     2.9400 h1         1 IYU       0.036700
     65 H19         27.8750     2.6410     2.2910 h1         1 IYU       0.036700
     66 H20         26.0870     5.6700     1.1160 h1         1 IYU       0.052200
     67 H21         26.3700     5.0250     2.7440 h1         1 IYU       0.052200
     68 H22         28.1990     7.4850     1.2940 hn         1 IYU       0.318500
     69 H23         29.5760     9.0940     1.4840 ha         1 IYU       0.110000
     70 H24         29.8750    11.4850     1.9650 ha         1 IYU       0.151000
     71 H25         30.8110     9.6130     6.4020 ha         1 IYU       0.216000
     72 H26         32.1540     9.1280     8.3540 ha         1 IYU       0.199000
     73 H27         33.2590     8.9790    11.7300 h1         1 IYU       0.051450
     74 H28         32.6710     8.1010    10.3140 h1         1 IYU       0.051450
     75 H29         33.5360     9.6380    10.1140 h1         1 IYU       0.051450
     76 H30         31.8700     9.9470    12.9180 h1         1 IYU       0.051450
     77 H31         31.0600    11.3570    12.2230 h1         1 IYU       0.051450
     78 H32         30.1690     9.8400    12.4480 h1         1 IYU       0.051450
     79 H33         29.2350    11.1620    10.8380 ha         1 IYU       0.207000
     80 H34         26.5480    11.7440     4.5420 ha         1 IYU       0.148000
     81 H35         24.5440    13.0130     5.0060 ha         1 IYU       0.131000
     82 H36         25.5890    13.0800     9.2170 ha         1 IYU       0.139000
     83 H37         22.0510    14.8520     6.7460 h1         1 IYU       0.051450
     84 H38         23.3780    14.8830     5.5800 h1         1 IYU       0.051450
     85 H39         22.4460    13.3930     5.8300 h1         1 IYU       0.051450
     86 H40         24.2270    14.9310     9.1860 h1         1 IYU       0.051450
     87 H41         22.5110    14.8390     8.7620 h1         1 IYU       0.051450
     88 H42         23.3340    13.4160     9.4170 h1         1 IYU       0.051450
     89 H43         28.2350     8.4790     5.5060 ha         1 IYU       0.124000
@<TRIPOS>BOND
     1     1     3 1   
     2     1    47 1   
     3     1    48 1   
     4     2     3 1   
     5     2    10 1   
     6     2    49 1   
     7     2    50 1   
     8     3    51 1   
     9     3    52 1   
    10     4    30 2   
    11     4    31 1   
    12     4    32 1   
    13     5    47 1   
    14     5    53 1   
    15     5    54 1   
    16     5    55 1   
    17     6    14 1   
    18     6    16 1   
    19     7    16 1   
    20     7    17 1   
    21     7    56 1   
    22     7    57 1   
    23     8    24 1   
    24     9    10 1   
    25     9    44 1   
    26     9    58 1   
    27     9    59 1   
    28    10    60 1   
    29    10    61 1   
    30    11    40 1   
    31    11    41 1   
    32    11    42 1   
    33    12    14 1   
    34    12    44 1   
    35    12    62 1   
    36    12    63 1   
    37    13    47 2   
    38    14    64 1   
    39    14    65 1   
    40    15    47 2   
    41    16    66 1   
    42    16    67 1   
    43    17    18 1   
    44    17    68 1   
    45    18    19 2   
    46    18    20 1   
    47    20    21 ar  
    48    20    43 ar  
    49    21    22 ar  
    50    21    69 1   
    51    22    23 ar  
    52    22    70 1   
    53    23    24 1   
    54    23    25 ar  
    55    24    45 1   
    56    25    26 1   
    57    25    43 ar  
    58    26    27 2   
    59    26    35 1   
    60    27    28 1   
    61    27    34 1   
    62    28    29 2   
    63    28    71 1   
    64    29    30 1   
    65    29    72 1   
    66    30    33 1   
    67    31    73 1   
    68    31    74 1   
    69    31    75 1   
    70    32    76 1   
    71    32    77 1   
    72    32    78 1   
    73    33    34 2   
    74    33    79 1   
    75    34    46 1   
    76    35    36 ar  
    77    35    38 ar  
    78    36    37 ar  
    79    36    80 1   
    80    37    40 ar  
    81    37    81 1   
    82    38    39 ar  
    83    38    46 1   
    84    39    40 ar  
    85    39    82 1   
    86    41    83 1   
    87    41    84 1   
    88    41    85 1   
    89    42    86 1   
    90    42    87 1   
    91    42    88 1   
    92    43    89 1   
@<TRIPOS>SUBSTRUCTURE
     1 IYU         1 TEMP              0 ****  ****    0 ROOT
