@<TRIPOS>MOLECULE
IYV
   35    35     1     0     0
SMALL
No Charge or Current Charge


@<TRIPOS>ATOM
      1 CAA        -28.0030    -8.5920    32.9520 c6         1 IYV       0.167300
      2 CAB        -29.3860    -9.2130    32.5510 c6         1 IYV       0.182300
      3 CAC        -30.5470    -8.3000    33.0550 c6         1 IYV       0.104300
      4 CAD        -30.4290    -8.1000    34.6130 c6         1 IYV       0.305300
      5 CAF        -28.0080    -8.4710    34.5150 c6         1 IYV       0.120300
      6 CAG        -26.6750    -7.9900    35.2150 c3         1 IYV       0.182500
      7 CAH        -26.2450    -6.4900    34.9720 c3         1 IYV       0.131300
      8 CAI        -25.0730    -6.0170    35.8660 c3         1 IYV      -0.134100
      9 NAO        -26.7540    -8.2900    36.6740 n8         1 IYV      -0.995200
     10 OAE        -29.1050    -7.6160    34.9520 os         1 IYV      -0.427000
     11 OAJ        -31.8280    -8.8360    32.6300 oh         1 IYV      -0.712000
     12 OAL        -27.8170    -7.3170    32.2960 oh         1 IYV      -0.726000
     13 OAN        -29.5100    -9.4190    31.1310 oh         1 IYV      -0.639000
     14 OAP        -25.8160    -6.2980    33.6170 oh         1 IYV      -0.673000
     15 SAK        -30.7790    -9.6130    35.6450 ss         1 IYV      -0.474000
     16 H1         -27.2050    -9.2910    32.6590 h1         1 IYV       0.051700
     17 H2         -29.4780   -10.1850    33.0580 h1         1 IYV       0.054700
     18 H3         -30.4080    -7.3070    32.6000 h1         1 IYV       0.072700
     19 H4         -31.1620    -7.3430    34.9290 h2         1 IYV       0.077700
     20 H5         -28.1800    -9.4840    34.9040 h1         1 IYV       0.075700
     21 H6         -25.8630    -8.6130    34.8140 h1         1 IYV       0.076700
     22 H7         -27.1070    -5.8420    35.1850 h1         1 IYV       0.054700
     23 H8         -25.3630    -5.9880    36.9220 hc         1 IYV       0.044700
     24 H9         -24.2060    -6.6800    35.7600 hc         1 IYV       0.044700
     25 H10        -24.7620    -5.0000    35.5950 hc         1 IYV       0.044700
     26 H11        -32.9800   -10.3280    36.4440 h1         1 IYV       0.059367
     27 H12        -32.9470    -8.5690    36.1340 h1         1 IYV       0.059367
     28 H13        -33.0750    -9.7220    34.7700 h1         1 IYV       0.059367
     29 H14        -26.0090    -7.7820    37.1620 hn         1 IYV       0.406000
     30 H15        -27.6180    -7.8690    37.0370 hn         1 IYV       0.406000
     31 H17        -32.4990    -8.1200    32.7300 ho         1 IYV       0.504000
     32 H18        -27.0380    -6.8870    32.7580 ho         1 IYV       0.533000
     33 H19        -30.4820    -9.4260    30.9780 ho         1 IYV       0.454000
     34 H20        -25.2020    -5.5270    33.6160 ho         1 IYV       0.456000
     35 CAM        -32.6270    -9.5490    35.7560 c3         1 IYV       0.052900
@<TRIPOS>BOND
     1     1     2 1   
     2     1     5 1   
     3     1    12 1   
     4     1    16 1   
     5     2     3 1   
     6     2    13 1   
     7     2    17 1   
     8     3     4 1   
     9     3    11 1   
    10     3    18 1   
    11     4    10 1   
    12     4    15 1   
    13     4    19 1   
    14     5     6 1   
    15     5    10 1   
    16     5    20 1   
    17     6     7 1   
    18     6     9 1   
    19     6    21 1   
    20     7     8 1   
    21     7    14 1   
    22     7    22 1   
    23     8    23 1   
    24     8    24 1   
    25     8    25 1   
    26     9    29 1   
    27     9    30 1   
    28    11    31 1   
    29    12    32 1   
    30    13    33 1   
    31    14    34 1   
    32    15    35 1   
    33    26    35 1   
    34    27    35 1   
    35    28    35 1   
@<TRIPOS>SUBSTRUCTURE
     1 IYV         1 TEMP              0 ****  ****    0 ROOT
