@<TRIPOS>MOLECULE
IYV
   35    35     1     0     0
SMALL
bcc


@<TRIPOS>ATOM
      1 CAA        -27.9970    -8.5250    32.9140 c6         1 IYV       0.144100
      2 CAB        -29.3260    -9.1490    32.4950 c6         1 IYV       0.159100
      3 CAC        -30.4780    -8.3100    33.0400 c6         1 IYV       0.081100
      4 CAD        -30.3470    -8.1200    34.5580 c6         1 IYV       0.234200
      5 CAF        -28.0100    -8.4500    34.4440 c6         1 IYV       0.097100
      6 CAG        -26.7470    -7.9950    35.1910 c3         1 IYV       0.182500
      7 CAH        -26.3220    -6.5290    34.9690 c3         1 IYV       0.108100
      8 CAI        -25.2730    -6.0670    35.9670 c3         1 IYV      -0.134100
      9 NAO        -26.9540    -8.3420    36.5890 n8         1 IYV      -0.884800
     10 OAE        -29.0840    -7.6410    34.8960 os         1 IYV      -0.380600
     11 OAJ        -31.6830    -8.9410    32.6880 oh         1 IYV      -0.589800
     12 OAL        -27.8750    -7.2920    32.2670 oh         1 IYV      -0.603800
     13 OAN        -29.3680    -9.2470    31.0950 oh         1 IYV      -0.576800
     14 OAP        -25.7890    -6.4440    33.6460 oh         1 IYV      -0.610800
     15 SAK        -30.7300    -9.6530    35.5120 ss         1 IYV      -0.378200
     16 H1         -27.1860    -9.2180    32.6340 h1         1 IYV       0.051700
     17 H2         -29.3830   -10.1490    32.9520 h1         1 IYV       0.054700
     18 H3         -30.4180    -7.3110    32.5890 h1         1 IYV       0.072700
     19 H4         -31.0700    -7.3720    34.8940 h2         1 IYV       0.077700
     20 H5         -28.1530    -9.4860    34.7910 h1         1 IYV       0.075700
     21 H6         -25.9270    -8.6230    34.8230 h1         1 IYV       0.076700
     22 H7         -27.2000    -5.8770    35.0600 h1         1 IYV       0.054700
     23 H8         -25.6820    -5.9940    36.9740 hc         1 IYV       0.044700
     24 H9         -24.4150    -6.7420    35.9900 hc         1 IYV       0.044700
     25 H10        -24.9120    -5.0720    35.7020 hc         1 IYV       0.044700
     26 H11        -32.7720   -10.1480    36.6070 h1         1 IYV       0.059367
     27 H12        -32.5800    -8.3970    36.4450 h1         1 IYV       0.059367
     28 H13        -33.0960    -9.3730    35.0500 h1         1 IYV       0.059367
     29 H14        -26.0960    -8.2280    37.1130 hn         1 IYV       0.350800
     30 H15        -27.6340    -7.7220    37.0110 hn         1 IYV       0.350800
     31 H17        -32.3950    -8.2960    32.7240 ho         1 IYV       0.405000
     32 H18        -27.0620    -6.8690    32.6060 ho         1 IYV       0.434000
     33 H19        -30.2260    -9.6110    30.8510 ho         1 IYV       0.415000
     34 H20        -25.5330    -5.5300    33.4740 ho         1 IYV       0.417000
     35 CAM        -32.4620    -9.3510    35.9330 c3         1 IYV       0.005000
@<TRIPOS>BOND
     1     1     2 1   
     2     1     5 1   
     3     1    12 1   
     4     1    16 1   
     5     2     3 1   
     6     2    13 1   
     7     2    17 1   
     8     3     4 1   
     9     3    11 1   
    10     3    18 1   
    11     4    10 1   
    12     4    15 1   
    13     4    19 1   
    14     5     6 1   
    15     5    10 1   
    16     5    20 1   
    17     6     7 1   
    18     6     9 1   
    19     6    21 1   
    20     7     8 1   
    21     7    14 1   
    22     7    22 1   
    23     8    23 1   
    24     8    24 1   
    25     8    25 1   
    26     9    29 1   
    27     9    30 1   
    28    11    31 1   
    29    12    32 1   
    30    13    33 1   
    31    14    34 1   
    32    15    35 1   
    33    26    35 1   
    34    27    35 1   
    35    28    35 1   
@<TRIPOS>SUBSTRUCTURE
     1 IYV         1 TEMP              0 ****  ****    0 ROOT
