@<TRIPOS>MOLECULE
IYX
   40    42     1     0     0
SMALL
No Charge or Current Charge


@<TRIPOS>ATOM
      1 C1          -2.0880    -0.1030    -0.1600 ca         1 IYX      -0.080800
      2 C2          -2.4090     1.2150    -0.4060 ca         1 IYX      -0.150000
      3 C3          -0.7500    -0.5240    -0.1150 ca         1 IYX      -0.060000
      4 C4          -1.4100     2.1750    -0.6200 ca         1 IYX      -0.083000
      5 C5           0.2970     0.4150    -0.3250 cp         1 IYX      -0.031000
      6 C6          -0.0620     1.7700    -0.5780 ca         1 IYX      -0.091000
      7 C7          -3.2510    -0.9360     0.0380 cc         1 IYX      -0.137200
      8 C8          -4.4320    -0.2100    -0.0700 cd         1 IYX      -0.108600
      9 S9          -4.1570     1.5250    -0.4170 ss         1 IYX       0.028400
     10 C10          1.7330    -0.0090    -0.2830 cp         1 IYX      -0.037000
     11 C11          2.1330    -1.2750    -0.7730 ca         1 IYX      -0.096000
     12 C12          2.7310     0.8430     0.2510 ca         1 IYX      -0.160000
     13 C13          3.4770    -1.6800    -0.7380 ca         1 IYX      -0.172000
     14 C14          4.0890     0.4470     0.2930 ca         1 IYX       0.110100
     15 C15          4.4640    -0.8220    -0.2040 ca         1 IYX       0.116100
     16 O16          5.0740     1.2720     0.8160 os         1 IYX      -0.322100
     17 C17          4.7910     2.5800     1.3420 c3         1 IYX       0.145900
     18 O18          5.8000    -1.1890    -0.1530 os         1 IYX      -0.320100
     19 C19          6.2720    -2.4590    -0.6350 c3         1 IYX       0.144900
     20 C20         -5.8470    -0.7110     0.0810 c3         1 IYX       0.466900
     21 N21         -6.1310    -1.7410    -0.8230 n8         1 IYX      -1.007700
     22 N22         -5.9830    -1.5510     1.2050 n8         1 IYX      -1.007700
     23 H3          -0.5220    -1.5660     0.0940 ha         1 IYX       0.121000
     24 H4          -1.6710     3.2130    -0.8170 ha         1 IYX       0.122000
     25 H6           0.7130     2.5110    -0.7580 ha         1 IYX       0.116000
     26 H7          -3.2220    -2.0020     0.2480 ha         1 IYX       0.220000
     27 H11          1.3940    -1.9480    -1.2020 ha         1 IYX       0.117000
     28 H12          2.4290     1.8080     0.6440 ha         1 IYX       0.121000
     29 H13          3.7320    -2.6600    -1.1310 ha         1 IYX       0.120000
     30 H17          5.7140     3.0540     1.6970 h1         1 IYX       0.039700
     31 H17A         4.3530     3.2250     0.5690 h1         1 IYX       0.039700
     32 H17B         4.0940     2.5190     2.1870 h1         1 IYX       0.039700
     33 H19          6.0560    -2.5750    -1.7050 h1         1 IYX       0.039700
     34 H19A         7.3570    -2.5380    -0.4970 h1         1 IYX       0.039700
     35 H19B         5.7990    -3.2840    -0.0880 h1         1 IYX       0.039700
     36 HN21        -5.4820    -2.4780    -0.5550 hn         1 IYX       0.411250
     37 HN2A        -7.0360    -2.1060    -0.5330 hn         1 IYX       0.411250
     38 HN2C        -5.2430    -1.2930     1.8630 hn         1 IYX       0.411250
     39 HN2D        -6.8490    -1.2940     1.6870 hn         1 IYX       0.411250
     40 H20         -6.5930     0.0960     0.0600 h2         1 IYX       0.034700
@<TRIPOS>BOND
     1     1     2 ar  
     2     1     3 ar  
     3     1     7 1   
     4     2     4 ar  
     5     2     9 1   
     6     3     5 ar  
     7     3    23 1   
     8     4     6 ar  
     9     4    24 1   
    10     5     6 ar  
    11     5    10 1   
    12     6    25 1   
    13     7     8 2   
    14     7    26 1   
    15     8     9 1   
    16     8    20 1   
    17    10    11 ar  
    18    10    12 ar  
    19    11    13 ar  
    20    11    27 1   
    21    12    14 ar  
    22    12    28 1   
    23    13    15 ar  
    24    13    29 1   
    25    14    15 ar  
    26    14    16 1   
    27    15    18 1   
    28    16    17 1   
    29    17    30 1   
    30    17    31 1   
    31    17    32 1   
    32    18    19 1   
    33    19    33 1   
    34    19    34 1   
    35    19    35 1   
    36    20    21 1   
    37    20    22 1   
    38    20    40 1   
    39    21    36 1   
    40    21    37 1   
    41    22    38 1   
    42    22    39 1   
@<TRIPOS>SUBSTRUCTURE
     1 IYX         1 TEMP              0 ****  ****    0 ROOT
