@<TRIPOS>MOLECULE
IYX
   40    42     1     0     0
SMALL
abcg2


@<TRIPOS>ATOM
      1 C1          -2.0430    -0.1930     0.0190 ca         1 IYX      -0.080800
      2 C2          -2.3570     1.1110    -0.3980 ca         1 IYX      -0.150000
      3 C3          -0.7030    -0.5810     0.0850 ca         1 IYX      -0.060000
      4 C4          -1.3620     2.0200    -0.7410 ca         1 IYX      -0.083000
      5 C5           0.3040     0.3090    -0.2610 cp         1 IYX      -0.031000
      6 C6          -0.0450     1.6100    -0.6700 ca         1 IYX      -0.091000
      7 C7          -3.2200    -0.9530     0.3340 cc         1 IYX      -0.137200
      8 C8          -4.3650    -0.2540     0.1580 cd         1 IYX      -0.108600
      9 S9          -4.0700     1.3720    -0.3920 ss         1 IYX       0.028400
     10 C10          1.7220    -0.1000    -0.2110 cp         1 IYX      -0.037000
     11 C11          2.1160    -1.3730    -0.5940 ca         1 IYX      -0.096000
     12 C12          2.7040     0.8020     0.2210 ca         1 IYX      -0.160000
     13 C13          3.4570    -1.7460    -0.5560 ca         1 IYX      -0.172000
     14 C14          4.0390     0.4440     0.2640 ca         1 IYX       0.110100
     15 C15          4.4280    -0.8530    -0.1350 ca         1 IYX       0.116100
     16 O16          5.0390     1.2470     0.6730 os         1 IYX      -0.322100
     17 C17          4.7180     2.5660     1.0660 c3         1 IYX       0.145900
     18 O18          5.7460    -1.1120    -0.0710 os         1 IYX      -0.320100
     19 C19          6.1950    -2.3850    -0.4880 c3         1 IYX       0.144900
     20 C20         -5.7910    -0.7320     0.2990 c3         1 IYX       0.466900
     21 N21         -6.3710    -1.1730    -0.9550 n8         1 IYX      -1.007700
     22 N22         -5.8170    -1.8490     1.2170 n8         1 IYX      -1.007700
     23 H3          -0.4540    -1.5780     0.4280 ha         1 IYX       0.121000
     24 H4          -1.6070     3.0220    -1.0670 ha         1 IYX       0.122000
     25 H6           0.7330     2.3060    -0.9590 ha         1 IYX       0.116000
     26 H7          -3.1970    -1.9780     0.6740 ha         1 IYX       0.220000
     27 H11          1.3860    -2.0880    -0.9510 ha         1 IYX       0.117000
     28 H12          2.3990     1.7870     0.5480 ha         1 IYX       0.121000
     29 H13          3.7270    -2.7430    -0.8750 ha         1 IYX       0.120000
     30 H17          5.6570     3.0450     1.3350 h1         1 IYX       0.039700
     31 H17A         4.2550     3.1340     0.2550 h1         1 IYX       0.039700
     32 H17B         4.0540     2.5860     1.9340 h1         1 IYX       0.039700
     33 H19          5.9500    -2.5810    -1.5360 h1         1 IYX       0.039700
     34 H19A         7.2760    -2.3840    -0.3770 h1         1 IYX       0.039700
     35 H19B         5.7800    -3.1890     0.1270 h1         1 IYX       0.039700
     36 HN21        -6.4960    -0.3870    -1.5810 hn         1 IYX       0.411250
     37 HN2A        -5.7380    -1.8170    -1.4150 hn         1 IYX       0.411250
     38 HN2C        -5.5110    -1.5530     2.1350 hn         1 IYX       0.411250
     39 HN2D        -6.7730    -2.1660     1.3130 hn         1 IYX       0.411250
     40 H20         -6.4020     0.1190     0.6350 h2         1 IYX       0.034700
@<TRIPOS>BOND
     1     1     2 ar  
     2     1     3 ar  
     3     1     7 1   
     4     2     4 ar  
     5     2     9 1   
     6     3     5 ar  
     7     3    23 1   
     8     4     6 ar  
     9     4    24 1   
    10     5     6 ar  
    11     5    10 1   
    12     6    25 1   
    13     7     8 2   
    14     7    26 1   
    15     8     9 1   
    16     8    20 1   
    17    10    11 ar  
    18    10    12 ar  
    19    11    13 ar  
    20    11    27 1   
    21    12    14 ar  
    22    12    28 1   
    23    13    15 ar  
    24    13    29 1   
    25    14    15 ar  
    26    14    16 1   
    27    15    18 1   
    28    16    17 1   
    29    17    30 1   
    30    17    31 1   
    31    17    32 1   
    32    18    19 1   
    33    19    33 1   
    34    19    34 1   
    35    19    35 1   
    36    20    21 1   
    37    20    22 1   
    38    20    40 1   
    39    21    36 1   
    40    21    37 1   
    41    22    38 1   
    42    22    39 1   
@<TRIPOS>SUBSTRUCTURE
     1 IYX         1 TEMP              0 ****  ****    0 ROOT
