@<TRIPOS>MOLECULE
IYY
   24    23     1     0     0
SMALL
abcg2


@<TRIPOS>ATOM
      1 CA          25.5360    -1.4620    17.7440 c3         1 IYY       0.026500
      2 CB          25.0440    -0.4960    18.8640 c          1 IYY       0.699500
      3 O3          33.5890    -4.5200    18.1420 o          1 IYY      -0.732250
      4 C4          31.1970    -4.4830    18.0130 c3         1 IYY       0.026500
      5 C5          32.5890    -3.8260    17.8340 c          1 IYY       0.699500
      6 O2          32.6060    -2.6620    17.3620 o          1 IYY      -0.732250
      7 N1          31.2270    -5.4230    19.1390 n8         1 IYY      -0.997200
      8 C3          30.0910    -3.4580    18.2410 c3         1 IYY       0.116600
      9 S1          29.7910    -2.3930    16.7700 ss         1 IYY      -0.293000
     10 SG          27.7500    -2.5430    16.4680 ss         1 IYY      -0.293000
     11 C1          27.0550    -1.3260    17.6590 c3         1 IYY       0.116600
     12 N           24.9320    -1.2450    16.4270 n8         1 IYY      -0.997200
     13 O           25.1950    -0.8980    20.0460 o          1 IYY      -0.732250
     14 OXT         24.5650     0.6060    18.5020 o          1 IYY      -0.732250
     15 HA          25.2970    -2.4790    18.0630 h1         1 IYY       0.032200
     16 H1          30.9910    -4.9930    17.0590 h1         1 IYY       0.032200
     17 H10         30.5460    -6.1610    19.0000 hn         1 IYY       0.379500
     18 H11         32.1480    -5.8490    19.1460 hn         1 IYY       0.379500
     19 H8          30.3330    -2.8210    19.0910 h1         1 IYY       0.060200
     20 H7          29.1470    -3.9640    18.4390 h1         1 IYY       0.060200
     21 HB2         27.5000    -1.5210    18.6320 h1         1 IYY       0.060200
     22 HB3         27.3330    -0.3240    17.3290 h1         1 IYY       0.060200
     23 H2          23.9420    -1.4680    16.4820 hn         1 IYY       0.379500
     24 H           24.9660    -0.2470    16.2350 hn         1 IYY       0.379500
@<TRIPOS>BOND
     1     1     2 1   
     2     1    11 1   
     3     1    12 1   
     4     1    15 1   
     5     2    13 1   
     6     2    14 1   
     7     3     5 1   
     8     4     5 1   
     9     4     7 1   
    10     4     8 1   
    11     4    16 1   
    12     5     6 1   
    13     7    17 1   
    14     7    18 1   
    15     8     9 1   
    16     8    19 1   
    17     8    20 1   
    18     9    10 1   
    19    10    11 1   
    20    11    21 1   
    21    11    22 1   
    22    12    23 1   
    23    12    24 1   
@<TRIPOS>SUBSTRUCTURE
     1 IYY         1 TEMP              0 ****  ****    0 ROOT
