@<TRIPOS>MOLECULE
IYY
   24    23     1     0     0
SMALL
No Charge or Current Charge


@<TRIPOS>ATOM
      1 CA          25.5290    -1.2390    17.7640 c3         1 IYY       0.026500
      2 CB          25.4650    -0.0020    18.7440 c          1 IYY       0.699500
      3 O3          33.0940    -3.0650    17.3070 o          1 IYY      -0.732250
      4 C4          31.3520    -4.5120    18.1410 c3         1 IYY       0.026500
      5 C5          32.1530    -3.1470    18.0860 c          1 IYY       0.699500
      6 O2          31.8680    -2.2560    18.8780 o          1 IYY      -0.732250
      7 N1          31.7190    -5.4540    19.2710 n8         1 IYY      -0.997200
      8 C3          29.8230    -4.2530    18.1010 c3         1 IYY       0.116600
      9 S1          29.3110    -3.4480    16.5130 ss         1 IYY      -0.293000
     10 SG          27.2350    -3.2440    16.6980 ss         1 IYY      -0.293000
     11 C1          27.0200    -1.5790    17.4910 c3         1 IYY       0.116600
     12 N           24.7180    -1.1120    16.4870 n8         1 IYY      -0.997200
     13 O           24.9740    -0.1640    19.8530 o          1 IYY      -0.732250
     14 OXT         25.8240     1.0910    18.3260 o          1 IYY      -0.732250
     15 HA          25.1070    -2.0890    18.3170 h1         1 IYY       0.032200
     16 H1          31.6030    -5.0470    17.2150 h1         1 IYY       0.032200
     17 H10         31.2650    -6.3640    19.1240 hn         1 IYY       0.379500
     18 H11         32.7230    -5.6700    19.2160 hn         1 IYY       0.379500
     19 H8          29.5250    -3.6160    18.9430 h1         1 IYY       0.060200
     20 H7          29.2850    -5.2060    18.1860 h1         1 IYY       0.060200
     21 HB2         27.5670    -1.5840    18.4430 h1         1 IYY       0.060200
     22 HB3         27.4690    -0.8120    16.8470 h1         1 IYY       0.060200
     23 H2          23.7370    -0.9310    16.7310 hn         1 IYY       0.379500
     24 H           25.0030    -0.2510    16.0040 hn         1 IYY       0.379500
@<TRIPOS>BOND
     1     1     2 1   
     2     1    11 1   
     3     1    12 1   
     4     1    15 1   
     5     2    13 1   
     6     2    14 1   
     7     3     5 1   
     8     4     5 1   
     9     4     7 1   
    10     4     8 1   
    11     4    16 1   
    12     5     6 1   
    13     7    17 1   
    14     7    18 1   
    15     8     9 1   
    16     8    19 1   
    17     8    20 1   
    18     9    10 1   
    19    10    11 1   
    20    11    21 1   
    21    11    22 1   
    22    12    23 1   
    23    12    24 1   
@<TRIPOS>SUBSTRUCTURE
     1 IYY         1 TEMP              0 ****  ****    0 ROOT
