@<TRIPOS>MOLECULE
IYZ
   41    44     1     0     0
SMALL
abcg2


@<TRIPOS>ATOM
      1 CAJ         -4.6300     3.6440    -0.0930 cx         1 IYZ      -0.126900
      2 CAK         -5.5380     2.5030    -0.4390 cx         1 IYZ      -0.126900
      3 CAV         -4.4730     2.3300     0.6040 cx         1 IYZ      -0.151700
      4 CAL         -3.2750     1.4780     0.2940 c3         1 IYZ       0.249800
      5 NAO         -3.6150     0.0780     0.4240 nu         1 IYZ      -0.918100
      6 CAS         -2.7070    -0.9030     0.2240 cc         1 IYZ       0.581900
      7 CAF         -3.1490    -2.2710     0.2100 cc         1 IYZ      -0.204000
      8 CAG         -2.2370    -3.2550     0.0470 cd         1 IYZ       0.011000
      9 NAN         -1.4550    -0.5520     0.0730 nd         1 IYZ      -0.587800
     10 NAW         -0.5820    -1.5550    -0.0810 na         1 IYZ       0.282900
     11 CAU         -0.8800    -2.8920    -0.1020 cd         1 IYZ      -0.156000
     12 NAM          0.2110    -3.6240    -0.2610 nc         1 IYZ      -0.259600
     13 CAH          1.2190    -2.7370    -0.3360 cc         1 IYZ      -0.044400
     14 CAT          0.7720    -1.4290    -0.2270 cd         1 IYZ      -0.084300
     15 CAR          1.5260    -0.1830    -0.2640 ca         1 IYZ      -0.017800
     16 CAI          2.8710    -0.2120     0.1020 ca         1 IYZ      -0.048000
     17 CAE          0.9800     1.0340    -0.6880 ca         1 IYZ      -0.061000
     18 CAC          1.7650     2.1750    -0.7420 ca         1 IYZ      -0.130000
     19 CAD          3.1030     2.1310    -0.3820 ca         1 IYZ      -0.072000
     20 CAQ          3.6660     0.9290     0.0430 ca         1 IYZ      -0.179600
     21 CAP          5.0970     0.8290     0.4530 c          1 IYZ       0.583700
     22 CAA          5.9450     2.0680     0.3780 c3         1 IYZ      -0.195100
     23 OAB          5.5550    -0.2280     0.8360 o          1 IYZ      -0.524100
     24 HAJ1        -5.0380     4.4730     0.4690 hc         1 IYZ       0.074200
     25 HAJ2        -3.8730     3.9250    -0.8160 hc         1 IYZ       0.074200
     26 HAK1        -5.3960     2.0160    -1.3970 hc         1 IYZ       0.074200
     27 HAK2        -6.5690     2.5520    -0.1140 hc         1 IYZ       0.074200
     28 HAV         -4.8080     2.2860     1.6350 hc         1 IYZ       0.089700
     29 HAL1        -2.4570     1.7130     0.9790 h1         1 IYZ       0.054700
     30 HAL2        -2.9070     1.7010    -0.7170 h1         1 IYZ       0.054700
     31 HAO         -4.5810    -0.1650     0.2700 hn         1 IYZ       0.491000
     32 HAF         -4.2010    -2.4900     0.3360 ha         1 IYZ       0.131000
     33 HAG         -2.5130    -4.3000     0.0320 ha         1 IYZ       0.147000
     34 HAH          2.2410    -3.0530    -0.4870 h4         1 IYZ       0.233000
     35 HAI          3.3090    -1.1380     0.4520 ha         1 IYZ       0.137000
     36 HAE         -0.0590     1.0930    -0.9770 ha         1 IYZ       0.131000
     37 HAC          1.3280     3.1070    -1.0730 ha         1 IYZ       0.114000
     38 HAD          3.6950     3.0350    -0.4340 ha         1 IYZ       0.113000
     39 HAA1         6.9570     1.8550     0.7150 hc         1 IYZ       0.061033
     40 HAA2         5.9870     2.4480    -0.6440 hc         1 IYZ       0.061033
     41 HAA3         5.5290     2.8640     0.9980 hc         1 IYZ       0.061033
@<TRIPOS>BOND
     1     1     2 1   
     2     1     3 1   
     3     1    24 1   
     4     1    25 1   
     5     2     3 1   
     6     2    26 1   
     7     2    27 1   
     8     3     4 1   
     9     3    28 1   
    10     4     5 1   
    11     4    29 1   
    12     4    30 1   
    13     5     6 1   
    14     5    31 1   
    15     6     7 1   
    16     6     9 2   
    17     7     8 2   
    18     7    32 1   
    19     8    11 1   
    20     8    33 1   
    21     9    10 1   
    22    10    11 1   
    23    10    14 1   
    24    11    12 2   
    25    12    13 1   
    26    13    14 2   
    27    13    34 1   
    28    14    15 1   
    29    15    16 ar  
    30    15    17 ar  
    31    16    20 ar  
    32    16    35 1   
    33    17    18 ar  
    34    17    36 1   
    35    18    19 ar  
    36    18    37 1   
    37    19    20 ar  
    38    19    38 1   
    39    20    21 1   
    40    21    22 1   
    41    21    23 2   
    42    22    39 1   
    43    22    40 1   
    44    22    41 1   
@<TRIPOS>SUBSTRUCTURE
     1 IYZ         1 TEMP              0 ****  ****    0 ROOT
