@<TRIPOS>MOLECULE
IYZ
   41    44     1     0     0
SMALL
No Charge or Current Charge


@<TRIPOS>ATOM
      1 CAJ         -5.1370     3.6150    -0.1560 cx         1 IYZ      -0.126900
      2 CAK         -5.7970     2.4630    -0.8770 cx         1 IYZ      -0.126900
      3 CAV         -4.9310     2.1990     0.3350 cx         1 IYZ      -0.151700
      4 CAL         -3.5740     1.5230     0.2030 c3         1 IYZ       0.249800
      5 NAO         -3.7300     0.0660     0.2610 nu         1 IYZ      -0.918100
      6 CAS         -2.7370    -0.8690     0.2000 cc         1 IYZ       0.581900
      7 CAF         -3.1880    -2.2320     0.1980 cc         1 IYZ      -0.204000
      8 CAG         -2.2620    -3.2430     0.1400 cd         1 IYZ       0.011000
      9 NAN         -1.4910    -0.4140     0.1520 nd         1 IYZ      -0.587800
     10 NAW         -0.5790    -1.4520     0.0900 na         1 IYZ       0.282900
     11 CAU         -0.9150    -2.7870     0.0860 cd         1 IYZ      -0.156000
     12 NAM          0.1730    -3.5250     0.0290 nc         1 IYZ      -0.259600
     13 CAH          1.2160    -2.6260    -0.0020 cc         1 IYZ      -0.044400
     14 CAT          0.8010    -1.3010     0.0330 cd         1 IYZ      -0.084300
     15 CAR          1.6660    -0.0840     0.0160 ca         1 IYZ      -0.017800
     16 CAI          3.0730    -0.2380    -0.0280 ca         1 IYZ      -0.048000
     17 CAE          1.1510     1.2330     0.0400 ca         1 IYZ      -0.061000
     18 CAC          2.0090     2.3430     0.0220 ca         1 IYZ      -0.130000
     19 CAD          3.3980     2.1710    -0.0210 ca         1 IYZ      -0.072000
     20 CAQ          3.9510     0.8720    -0.0460 ca         1 IYZ      -0.179600
     21 CAP          5.4510     0.6440    -0.0930 c          1 IYZ       0.583700
     22 CAA          6.4010     1.8430    -0.1130 c3         1 IYZ      -0.195100
     23 OAB          5.9140    -0.4910    -0.1150 o          1 IYZ      -0.524100
     24 HAJ1        -5.7690     4.2700     0.4380 hc         1 IYZ       0.074200
     25 HAJ2        -4.3060     4.1120    -0.6520 hc         1 IYZ       0.074200
     26 HAK1        -5.4070     2.1870    -1.8550 hc         1 IYZ       0.074200
     27 HAK2        -6.8720     2.3450    -0.7670 hc         1 IYZ       0.074200
     28 HAV         -5.4390     1.9340     1.2600 hc         1 IYZ       0.089700
     29 HAL1        -2.9230     1.8670     1.0200 h1         1 IYZ       0.054700
     30 HAL2        -3.1030     1.8170    -0.7460 h1         1 IYZ       0.054700
     31 HAO         -4.6750    -0.3100     0.2370 hn         1 IYZ       0.491000
     32 HAF         -4.2480    -2.4520     0.2430 ha         1 IYZ       0.131000
     33 HAG         -2.5340    -4.2950     0.1370 ha         1 IYZ       0.147000
     34 HAH          2.2290    -3.0120    -0.0500 h4         1 IYZ       0.233000
     35 HAI          3.5000    -1.2360    -0.0470 ha         1 IYZ       0.137000
     36 HAE          0.0870     1.4290     0.0700 ha         1 IYZ       0.131000
     37 HAC          1.5910     3.3470     0.0410 ha         1 IYZ       0.114000
     38 HAD          4.0290     3.0560    -0.0330 ha         1 IYZ       0.113000
     39 HAA1         7.4550     1.5440    -0.1460 hc         1 IYZ       0.061033
     40 HAA2         6.1420     2.4910    -0.9570 hc         1 IYZ       0.061033
     41 HAA3         6.1930     2.4790     0.7550 hc         1 IYZ       0.061033
@<TRIPOS>BOND
     1     1     2 1   
     2     1     3 1   
     3     1    24 1   
     4     1    25 1   
     5     2     3 1   
     6     2    26 1   
     7     2    27 1   
     8     3     4 1   
     9     3    28 1   
    10     4     5 1   
    11     4    29 1   
    12     4    30 1   
    13     5     6 1   
    14     5    31 1   
    15     6     7 1   
    16     6     9 2   
    17     7     8 2   
    18     7    32 1   
    19     8    11 1   
    20     8    33 1   
    21     9    10 1   
    22    10    11 1   
    23    10    14 1   
    24    11    12 2   
    25    12    13 1   
    26    13    14 2   
    27    13    34 1   
    28    14    15 1   
    29    15    16 ar  
    30    15    17 ar  
    31    16    20 ar  
    32    16    35 1   
    33    17    18 ar  
    34    17    36 1   
    35    18    19 ar  
    36    18    37 1   
    37    19    20 ar  
    38    19    38 1   
    39    20    21 1   
    40    21    22 1   
    41    21    23 2   
    42    22    39 1   
    43    22    40 1   
    44    22    41 1   
@<TRIPOS>SUBSTRUCTURE
     1 IYZ         1 TEMP              0 ****  ****    0 ROOT
