@<TRIPOS>MOLECULE
IZ1
   64    68     1     0     0
SMALL
abcg2


@<TRIPOS>ATOM
      1 C1          19.4720    17.1710    82.0030 c5         1 IZ1      -0.213400
      2 C2          20.5810    18.1120    81.5430 c5         1 IZ1      -0.156400
      3 C3          21.9080    17.5250    81.9710 c          1 IZ1       0.575000
      4 N4          21.7660    16.1860    82.2340 ns         1 IZ1      -0.587300
      5 S5          20.2550    15.5410    81.8880 s6         1 IZ1       1.187800
      6 O6          19.8550    14.6410    82.9520 o          1 IZ1      -0.510500
      7 O7          20.2240    15.0480    80.5240 o          1 IZ1      -0.510500
      8 O9          22.9500    18.1240    82.0660 o          1 IZ1      -0.484000
      9 C11         18.1680    17.2070    81.2690 ca         1 IZ1      -0.082300
     10 C12         18.1020    17.2940    79.8820 ca         1 IZ1      -0.080500
     11 C13         16.8740    17.3260    79.2430 ca         1 IZ1      -0.093500
     12 C14         15.6870    17.2710    79.9670 ca         1 IZ1      -0.070300
     13 C15         15.7580    17.1720    81.3520 ca         1 IZ1      -0.093500
     14 C16         16.9840    17.1380    81.9960 ca         1 IZ1      -0.080500
     15 C21         14.3580    17.3840    79.2780 c3         1 IZ1      -0.031100
     16 C23         16.3160    21.3390    78.5930 cc         1 IZ1       0.293500
     17 C4          16.1340    20.8310    77.3320 cd         1 IZ1      -0.200000
     18 N11         15.5020    20.6780    79.4720 nc         1 IZ1      -0.642000
     19 C25         14.8440    19.7970    78.7690 cd         1 IZ1       0.343800
     20 N13         15.2010    19.8500    77.4660 na         1 IZ1      -0.290500
     21 C17         18.9240    24.4670    79.8470 ca         1 IZ1      -0.105000
     22 C19         18.4150    23.5620    80.7700 ca         1 IZ1      -0.113500
     23 C20         17.5650    22.5460    80.3610 ca         1 IZ1      -0.096000
     24 C27         17.2060    22.4150    79.0180 ca         1 IZ1      -0.111500
     25 C5          17.7170    23.3340    78.0990 ca         1 IZ1      -0.096000
     26 C6          18.5710    24.3460    78.5080 ca         1 IZ1      -0.113500
     27 C22         13.8430    18.8320    79.3230 c3         1 IZ1       0.206200
     28 N45         12.5510    18.8640    78.6430 n7         1 IZ1      -0.906300
     29 S1          11.6060    20.2060    78.6460 sy         1 IZ1       1.171600
     30 O1          10.3590    19.8150    78.0150 o          1 IZ1      -0.522500
     31 O2          11.6240    20.7330    79.9990 o          1 IZ1      -0.522500
     32 C24         12.9420    22.1240    75.3840 ca         1 IZ1      -0.224300
     33 C26         13.6590    23.1910    75.9220 ca         1 IZ1      -0.018000
     34 C7          12.2980    21.2240    76.2150 ca         1 IZ1       0.012000
     35 C8          12.3870    21.4030    77.5900 ca         1 IZ1      -0.310500
     36 C9          13.0890    22.4600    78.1410 ca         1 IZ1       0.036000
     37 C10         13.7290    23.3550    77.2930 ca         1 IZ1      -0.126000
     38 F3          12.2400    20.8760    73.5090 f          1 IZ1      -0.111333
     39 F1          14.1090    21.9340    73.3590 f          1 IZ1      -0.111333
     40 F2          12.2560    23.0200    73.3260 f          1 IZ1      -0.111333
     41 H1          19.3050    17.3130    83.0730 h1         1 IZ1       0.112700
     42 H2C1        20.5990    18.2300    80.4580 hc         1 IZ1       0.100700
     43 H2C2        20.4510    19.1020    81.9780 hc         1 IZ1       0.100700
     44 H4          22.5580    15.5860    82.4410 hn         1 IZ1       0.357500
     45 H12         19.0020    17.3430    79.2840 ha         1 IZ1       0.122500
     46 H16         17.0180    17.0670    83.0770 ha         1 IZ1       0.122500
     47 H13         16.8410    17.3960    78.1630 ha         1 IZ1       0.117000
     48 H15         14.8480    17.1230    81.9390 ha         1 IZ1       0.117000
     49 H211        14.4450    17.0580    78.2380 hc         1 IZ1       0.060200
     50 H212        13.6170    16.7420    79.7580 hc         1 IZ1       0.060200
     51 H22         13.6870    19.1100    80.3660 h1         1 IZ1       0.120700
     52 HA          16.5760    21.0730    76.3800 h4         1 IZ1       0.166000
     53 HB          14.8480    19.2770    76.7160 hn         1 IZ1       0.353000
     54 H17         19.5870    25.2610    80.1670 ha         1 IZ1       0.115000
     55 H19         18.6850    23.6460    81.8160 ha         1 IZ1       0.113500
     56 H6          18.9540    25.0500    77.7810 ha         1 IZ1       0.113500
     57 H20         17.1780    21.8400    81.0850 ha         1 IZ1       0.118500
     58 H5          17.4350    23.2680    77.0550 ha         1 IZ1       0.118500
     59 H45         12.4540    18.2880    77.8150 hn         1 IZ1       0.488000
     60 H26         14.1670    23.8970    75.2780 ha         1 IZ1       0.132000
     61 H7          11.7360    20.3950    75.8050 ha         1 IZ1       0.141000
     62 H10         14.2840    24.1830    77.7100 ha         1 IZ1       0.135000
     63 H9          13.1490    22.5940    79.2110 ha         1 IZ1       0.158000
     64 C18         12.8820    21.9810    73.8940 c3         1 IZ1       0.357300
@<TRIPOS>BOND
     1     1     2 1   
     2     1     5 1   
     3     1     9 1   
     4     1    41 1   
     5     2     3 1   
     6     2    42 1   
     7     2    43 1   
     8     3     4 1   
     9     3     8 2   
    10     4     5 1   
    11     4    44 1   
    12     5     6 2   
    13     5     7 2   
    14     9    10 ar  
    15     9    14 ar  
    16    10    11 ar  
    17    10    45 1   
    18    11    12 ar  
    19    11    47 1   
    20    12    13 ar  
    21    12    15 1   
    22    13    14 ar  
    23    13    48 1   
    24    14    46 1   
    25    15    27 1   
    26    15    49 1   
    27    15    50 1   
    28    16    17 2   
    29    16    18 1   
    30    16    24 1   
    31    17    20 1   
    32    17    52 1   
    33    18    19 2   
    34    19    20 1   
    35    19    27 1   
    36    20    53 1   
    37    21    22 ar  
    38    21    26 ar  
    39    21    54 1   
    40    22    23 ar  
    41    22    55 1   
    42    23    24 ar  
    43    23    57 1   
    44    24    25 ar  
    45    25    26 ar  
    46    25    58 1   
    47    26    56 1   
    48    27    28 1   
    49    27    51 1   
    50    28    29 1   
    51    28    59 1   
    52    29    30 2   
    53    29    31 2   
    54    29    35 1   
    55    32    33 ar  
    56    32    34 ar  
    57    32    64 1   
    58    33    37 ar  
    59    33    60 1   
    60    34    35 ar  
    61    34    61 1   
    62    35    36 ar  
    63    36    37 ar  
    64    36    63 1   
    65    37    62 1   
    66    38    64 1   
    67    39    64 1   
    68    40    64 1   
@<TRIPOS>SUBSTRUCTURE
     1 IZ1         1 TEMP              0 ****  ****    0 ROOT
