@<TRIPOS>MOLECULE
IZ1
   64    68     1     0     0
SMALL
No Charge or Current Charge


@<TRIPOS>ATOM
      1 C1          19.4820    16.6970    82.1550 c5         1 IZ1      -0.213400
      2 C2          20.5500    17.8110    81.8150 c5         1 IZ1      -0.156400
      3 C3          21.9400    17.2480    82.2310 c          1 IZ1       0.575000
      4 N4          21.9240    15.9070    82.0120 ns         1 IZ1      -0.587300
      5 S5          20.4660    15.1750    81.7410 s6         1 IZ1       1.187800
      6 O6          20.3030    14.1230    82.7490 o          1 IZ1      -0.510500
      7 O7          20.4050    14.8550    80.3110 o          1 IZ1      -0.510500
      8 O9          22.8180    17.7940    82.8760 o          1 IZ1      -0.484000
      9 C11         18.1900    16.8890    81.3430 ca         1 IZ1      -0.082300
     10 C12         18.1770    17.0190    79.9360 ca         1 IZ1      -0.080500
     11 C13         16.9680    17.2010    79.2430 ca         1 IZ1      -0.093500
     12 C14         15.7480    17.2590    79.9400 ca         1 IZ1      -0.070300
     13 C15         15.7530    17.1270    81.3390 ca         1 IZ1      -0.093500
     14 C16         16.9620    16.9430    82.0310 ca         1 IZ1      -0.080500
     15 C21         14.4370    17.4810    79.1930 c3         1 IZ1      -0.031100
     16 C23         16.3950    21.5330    78.7260 cc         1 IZ1       0.293500
     17 C4          16.3970    21.0250    77.4540 cd         1 IZ1      -0.200000
     18 N11         15.5440    20.8660    79.5570 nc         1 IZ1      -0.642000
     19 C25         14.9830    19.9330    78.8000 cd         1 IZ1       0.343800
     20 N13         15.4790    19.9870    77.5030 na         1 IZ1      -0.290500
     21 C17         18.8000    24.8960    79.9200 ca         1 IZ1      -0.105000
     22 C19         18.2320    24.0520    80.8870 ca         1 IZ1      -0.113500
     23 C20         17.4520    22.9520    80.4910 ca         1 IZ1      -0.096000
     24 C27         17.2410    22.6700    79.1220 ca         1 IZ1      -0.111500
     25 C5          17.8040    23.5390    78.1600 ca         1 IZ1      -0.096000
     26 C6          18.5830    24.6400    78.5570 ca         1 IZ1      -0.113500
     27 C22         13.9310    18.9390    79.3040 c3         1 IZ1       0.206200
     28 N45         12.6080    19.0300    78.6150 n7         1 IZ1      -0.906300
     29 S1          11.6810    20.4090    78.8120 sy         1 IZ1       1.171600
     30 O1          10.3220    19.9990    78.4540 o          1 IZ1      -0.522500
     31 O2          12.0040    20.9460    80.1360 o          1 IZ1      -0.522500
     32 C24         12.6390    22.0150    75.1640 ca         1 IZ1      -0.224300
     33 C26         13.4830    23.0880    75.5260 ca         1 IZ1      -0.018000
     34 C7          12.0750    21.2100    76.1780 ca         1 IZ1       0.012000
     35 C8          12.3730    21.4600    77.5330 ca         1 IZ1      -0.310500
     36 C9          13.2100    22.5380    77.8820 ca         1 IZ1       0.036000
     37 C10         13.7630    23.3460    76.8770 ca         1 IZ1      -0.126000
     38 F3          12.1910    20.4150    73.4400 f          1 IZ1      -0.111333
     39 F1          13.2640    22.2050    72.8530 f          1 IZ1      -0.111333
     40 F2          11.1470    22.3180    73.3320 f          1 IZ1      -0.111333
     41 H1          19.2980    16.6320    83.2340 h1         1 IZ1       0.112700
     42 H2C1        20.6010    17.9520    80.7310 hc         1 IZ1       0.100700
     43 H2C2        20.3640    18.7820    82.2870 hc         1 IZ1       0.100700
     44 H4          22.5950    15.3170    82.4730 hn         1 IZ1       0.357500
     45 H12         19.1000    16.9770    79.3640 ha         1 IZ1       0.122500
     46 H16         16.9420    16.8470    83.1150 ha         1 IZ1       0.122500
     47 H13         16.9850    17.3020    78.1600 ha         1 IZ1       0.117000
     48 H15         14.8190    17.1700    81.8960 ha         1 IZ1       0.117000
     49 H211        14.5500    17.2120    78.1360 hc         1 IZ1       0.060200
     50 H212        13.6680    16.8100    79.5950 hc         1 IZ1       0.060200
     51 H22         13.8050    19.1370    80.3780 h1         1 IZ1       0.120700
     52 HA          16.9520    21.3030    76.5660 h4         1 IZ1       0.166000
     53 HB          15.2160    19.3730    76.7410 hn         1 IZ1       0.353000
     54 H17         19.4020    25.7490    80.2260 ha         1 IZ1       0.115000
     55 H19         18.3920    24.2520    81.9440 ha         1 IZ1       0.113500
     56 H6          19.0140    25.2990    77.8060 ha         1 IZ1       0.113500
     57 H20         17.0170    22.3110    81.2550 ha         1 IZ1       0.118500
     58 H5          17.6390    23.3760    77.0980 ha         1 IZ1       0.118500
     59 H45         12.7580    19.0380    77.6090 hn         1 IZ1       0.488000
     60 H26         13.9200    23.7320    74.7650 ha         1 IZ1       0.132000
     61 H7          11.4070    20.3920    75.9100 ha         1 IZ1       0.141000
     62 H10         14.4150    24.1730    77.1480 ha         1 IZ1       0.135000
     63 H9          13.4440    22.7510    78.9250 ha         1 IZ1       0.158000
     64 C18         12.3130    21.7380    73.6940 c3         1 IZ1       0.357300
@<TRIPOS>BOND
     1     1     2 1   
     2     1     5 1   
     3     1     9 1   
     4     1    41 1   
     5     2     3 1   
     6     2    42 1   
     7     2    43 1   
     8     3     4 1   
     9     3     8 2   
    10     4     5 1   
    11     4    44 1   
    12     5     6 2   
    13     5     7 2   
    14     9    10 ar  
    15     9    14 ar  
    16    10    11 ar  
    17    10    45 1   
    18    11    12 ar  
    19    11    47 1   
    20    12    13 ar  
    21    12    15 1   
    22    13    14 ar  
    23    13    48 1   
    24    14    46 1   
    25    15    27 1   
    26    15    49 1   
    27    15    50 1   
    28    16    17 2   
    29    16    18 1   
    30    16    24 1   
    31    17    20 1   
    32    17    52 1   
    33    18    19 2   
    34    19    20 1   
    35    19    27 1   
    36    20    53 1   
    37    21    22 ar  
    38    21    26 ar  
    39    21    54 1   
    40    22    23 ar  
    41    22    55 1   
    42    23    24 ar  
    43    23    57 1   
    44    24    25 ar  
    45    25    26 ar  
    46    25    58 1   
    47    26    56 1   
    48    27    28 1   
    49    27    51 1   
    50    28    29 1   
    51    28    59 1   
    52    29    30 2   
    53    29    31 2   
    54    29    35 1   
    55    32    33 ar  
    56    32    34 ar  
    57    32    64 1   
    58    33    37 ar  
    59    33    60 1   
    60    34    35 ar  
    61    34    61 1   
    62    35    36 ar  
    63    36    37 ar  
    64    36    63 1   
    65    37    62 1   
    66    38    64 1   
    67    39    64 1   
    68    40    64 1   
@<TRIPOS>SUBSTRUCTURE
     1 IZ1         1 TEMP              0 ****  ****    0 ROOT
