@<TRIPOS>MOLECULE
IZ2
   67    71     1     0     0
SMALL
abcg2


@<TRIPOS>ATOM
      1 C1          19.0320    17.2820    81.7680 c5         1 IZ2      -0.211400
      2 C2          20.1130    18.1320    81.1080 c5         1 IZ2      -0.155400
      3 C3          21.4630    17.5820    81.5130 c          1 IZ2       0.575000
      4 N4          21.3310    16.2840    81.9350 ns         1 IZ2      -0.588300
      5 S5          19.7880    15.6340    81.8150 s6         1 IZ2       1.186800
      6 O6          19.4810    14.9010    83.0280 o          1 IZ2      -0.509500
      7 O7          19.6240    14.9570    80.5430 o          1 IZ2      -0.509500
      8 O9          22.5130    18.1730    81.4620 o          1 IZ2      -0.485000
      9 C11         17.6790    17.2450    81.1310 ca         1 IZ2      -0.083300
     10 C12         17.5110    17.1800    79.7510 ca         1 IZ2      -0.080500
     11 C13         16.2400    17.1620    79.2030 ca         1 IZ2      -0.092500
     12 C14         15.1080    17.2080    80.0110 ca         1 IZ2      -0.069300
     13 C15         15.2790    17.2500    81.3900 ca         1 IZ2      -0.092500
     14 C16         16.5490    17.2650    81.9440 ca         1 IZ2      -0.080500
     15 C21         13.7380    17.2990    79.4030 c3         1 IZ2      -0.030100
     16 C22         13.2620    18.7620    79.3580 c3         1 IZ2       0.201200
     17 N45         11.9680    18.7880    78.6810 n7         1 IZ2      -0.894300
     18 S1          11.0730    20.1620    78.6050 sy         1 IZ2       1.166600
     19 C23         15.8770    21.0740    78.5070 cc         1 IZ2       0.240300
     20 C4          15.6830    20.5030    77.2810 cd         1 IZ2      -0.202000
     21 N11         15.0020    20.5360    79.4080 nc         1 IZ2      -0.650000
     22 C25         14.2960    19.6550    78.7490 cd         1 IZ2       0.338800
     23 N13         14.6740    19.6000    77.4550 na         1 IZ2      -0.292500
     24 C17         20.0340    22.4420    76.0260 ca         1 IZ2      -0.108000
     25 C18         18.9350    23.2860    75.9340 ca         1 IZ2      -0.109500
     26 C19         17.9110    23.2010    76.8700 ca         1 IZ2      -0.107000
     27 C20         17.9680    22.2750    77.9070 ca         1 IZ2      -0.084300
     28 C27         19.0740    21.4310    77.9870 ca         1 IZ2      -0.107000
     29 C6          20.1010    21.5130    77.0580 ca         1 IZ2      -0.109500
     30 O1           9.8190    19.7870    77.9760 o          1 IZ2      -0.522000
     31 O2          11.0910    20.7510    79.9320 o          1 IZ2      -0.522000
     32 C24         13.3550    23.1410    77.1330 ca         1 IZ2      -0.129000
     33 C26         13.2840    22.9220    75.7700 ca         1 IZ2      -0.014000
     34 C7          12.6650    22.3200    78.0140 ca         1 IZ2       0.036000
     35 C8          11.9100    21.2780    77.5040 ca         1 IZ2      -0.310500
     36 C9          11.8170    21.0470    76.1370 ca         1 IZ2       0.014000
     37 C10         12.5120    21.8750    75.2730 ca         1 IZ2      -0.222300
     38 C29         12.4760    21.6490    73.7930 c3         1 IZ2       0.357300
     39 F4          13.6680    21.2400    73.3370 f          1 IZ2      -0.111667
     40 F6          12.1770    22.7720    73.1280 f          1 IZ2      -0.111667
     41 F5          11.5800    20.7270    73.4340 f          1 IZ2      -0.111667
     42 H1          18.9430    17.5660    82.8200 h1         1 IZ2       0.113700
     43 H2C1        20.0630    18.0880    80.0190 hc         1 IZ2       0.099200
     44 H2C2        20.0220    19.1760    81.4050 hc         1 IZ2       0.099200
     45 H4          22.1300    15.6990    82.1600 hn         1 IZ2       0.357500
     46 H12         18.3630    17.1510    79.0850 ha         1 IZ2       0.121500
     47 H16         16.6620    17.3080    83.0200 ha         1 IZ2       0.121500
     48 H13         16.1310    17.1200    78.1270 ha         1 IZ2       0.117000
     49 H15         14.4150    17.2790    82.0430 ha         1 IZ2       0.117000
     50 H211        13.7550    16.8940    78.3870 hc         1 IZ2       0.060200
     51 H212        13.0140    16.7150    79.9740 hc         1 IZ2       0.060200
     52 H22         13.1170    19.1080    80.3820 h1         1 IZ2       0.120700
     53 H45         11.8810    18.2010    77.8580 hn         1 IZ2       0.484000
     54 HA          16.1540    20.6600    76.3260 h4         1 IZ2       0.169000
     55 H5C1        16.3180    23.1040    78.9860 hc         1 IZ2       0.063700
     56 H5C2        17.2380    21.9220    79.8880 hc         1 IZ2       0.063700
     57 HB          14.2970    19.0000    76.7380 hn         1 IZ2       0.351000
     58 H18         18.8750    24.0130    75.1350 ha         1 IZ2       0.114000
     59 H6          20.9560    20.8540    77.1390 ha         1 IZ2       0.114000
     60 H19         17.0570    23.8650    76.7940 ha         1 IZ2       0.109000
     61 H27         19.1270    20.6990    78.7850 ha         1 IZ2       0.109000
     62 H24         13.9490    23.9590    77.5190 ha         1 IZ2       0.130000
     63 H26         13.8360    23.5700    75.1010 ha         1 IZ2       0.132000
     64 H7          12.7270    22.4950    79.0780 ha         1 IZ2       0.156000
     65 H9          11.2140    20.2320    75.7600 ha         1 IZ2       0.142000
     66 C5          16.8420    22.1480    78.8950 c3         1 IZ2      -0.049400
     67 H17         20.8340    22.5100    75.3020 ha         1 IZ2       0.115000
@<TRIPOS>BOND
     1     1     2 1   
     2     1     5 1   
     3     1     9 1   
     4     1    42 1   
     5     2     3 1   
     6     2    43 1   
     7     2    44 1   
     8     3     4 1   
     9     3     8 2   
    10     4     5 1   
    11     4    45 1   
    12     5     6 2   
    13     5     7 2   
    14     9    10 ar  
    15     9    14 ar  
    16    10    11 ar  
    17    10    46 1   
    18    11    12 ar  
    19    11    48 1   
    20    12    13 ar  
    21    12    15 1   
    22    13    14 ar  
    23    13    49 1   
    24    14    47 1   
    25    15    16 1   
    26    15    50 1   
    27    15    51 1   
    28    16    17 1   
    29    16    22 1   
    30    16    52 1   
    31    17    18 1   
    32    17    53 1   
    33    18    30 2   
    34    18    31 2   
    35    18    35 1   
    36    19    20 2   
    37    19    21 1   
    38    19    66 1   
    39    20    23 1   
    40    20    54 1   
    41    21    22 2   
    42    22    23 1   
    43    23    57 1   
    44    24    25 ar  
    45    24    29 ar  
    46    24    67 1   
    47    25    26 ar  
    48    25    58 1   
    49    26    27 ar  
    50    26    60 1   
    51    27    28 ar  
    52    27    66 1   
    53    28    29 ar  
    54    28    61 1   
    55    29    59 1   
    56    32    33 ar  
    57    32    34 ar  
    58    32    62 1   
    59    33    37 ar  
    60    33    63 1   
    61    34    35 ar  
    62    34    64 1   
    63    35    36 ar  
    64    36    37 ar  
    65    36    65 1   
    66    37    38 1   
    67    38    39 1   
    68    38    40 1   
    69    38    41 1   
    70    55    66 1   
    71    56    66 1   
@<TRIPOS>SUBSTRUCTURE
     1 IZ2         1 TEMP              0 ****  ****    0 ROOT
