@<TRIPOS>MOLECULE
IZ2
   67    71     1     0     0
SMALL
No Charge or Current Charge


@<TRIPOS>ATOM
      1 C1          19.2330    17.0840    81.6700 c5         1 IZ2      -0.211400
      2 C2          20.2070    18.2110    81.1410 c5         1 IZ2      -0.155400
      3 C3          21.6580    17.7340    81.4400 c          1 IZ2       0.575000
      4 N4          21.6810    16.3810    81.3200 ns         1 IZ2      -0.588300
      5 S5          20.2380    15.5750    81.2620 s6         1 IZ2       1.186800
      6 O6          20.2310    14.5970    82.3550 o          1 IZ2      -0.509500
      7 O7          20.0420    15.1440    79.8740 o          1 IZ2      -0.509500
      8 O9          22.5730    18.3610    81.9430 o          1 IZ2      -0.485000
      9 C11         17.8580    17.1680    80.9880 ca         1 IZ2      -0.083300
     10 C12         17.6960    17.1900    79.5840 ca         1 IZ2      -0.080500
     11 C13         16.4170    17.2820    79.0110 ca         1 IZ2      -0.092500
     12 C14         15.2730    17.3580    79.8260 ca         1 IZ2      -0.069300
     13 C15         15.4250    17.3300    81.2230 ca         1 IZ2      -0.092500
     14 C16         16.7050    17.2350    81.7960 ca         1 IZ2      -0.080500
     15 C21         13.8870    17.5030    79.2040 c3         1 IZ2      -0.030100
     16 C22         13.3700    18.9610    79.2540 c3         1 IZ2       0.201200
     17 N45         12.0020    18.9980    78.6550 n7         1 IZ2      -0.894300
     18 S1          11.0790    20.3840    78.8180 sy         1 IZ2       1.166600
     19 C23         15.8610    21.4600    78.3770 cc         1 IZ2       0.240300
     20 C4          15.7300    20.8980    77.1360 cd         1 IZ2      -0.202000
     21 N11         15.0290    20.8660    79.2830 nc         1 IZ2      -0.650000
     22 C25         14.3760    19.9250    78.6150 cd         1 IZ2       0.338800
     23 N13         14.7740    19.9060    77.2880 na         1 IZ2      -0.292500
     24 C17         20.8970    21.8580    77.5960 ca         1 IZ2      -0.108000
     25 C18         20.0770    22.6890    76.8150 ca         1 IZ2      -0.109500
     26 C19         18.7450    22.9250    77.1990 ca         1 IZ2      -0.107000
     27 C20         18.2260    22.3300    78.3650 ca         1 IZ2      -0.084300
     28 C27         19.0510    21.4930    79.1420 ca         1 IZ2      -0.107000
     29 C6          20.3850    21.2600    78.7600 ca         1 IZ2      -0.109500
     30 O1           9.6920    19.9300    78.7040 o          1 IZ2      -0.522000
     31 O2          11.5720    21.0820    80.0070 o          1 IZ2      -0.522000
     32 C24         12.8840    23.0140    76.2660 ca         1 IZ2      -0.129000
     33 C26         12.3750    22.6320    75.0140 ca         1 IZ2      -0.014000
     34 C7          12.4820    22.3420    77.4300 ca         1 IZ2       0.036000
     35 C8          11.5720    21.2700    77.3400 ca         1 IZ2      -0.310500
     36 C9          11.0480    20.8940    76.0860 ca         1 IZ2       0.014000
     37 C10         11.4440    21.5750    74.9150 ca         1 IZ2      -0.222300
     38 C29         10.8860    21.1490    73.5530 c3         1 IZ2       0.357300
     39 F4          11.5860    20.1130    73.0400 f          1 IZ2      -0.111667
     40 F6          10.9280    22.1450    72.6390 f          1 IZ2      -0.111667
     41 F5           9.5950    20.7540    73.6330 f          1 IZ2      -0.111667
     42 H1          19.1640    17.0940    82.7650 h1         1 IZ2       0.113700
     43 H2C1        20.1360    18.2720    80.0510 hc         1 IZ2       0.099200
     44 H2C2        20.0270    19.2050    81.5630 hc         1 IZ2       0.099200
     45 H4          22.4240    15.8540    81.7450 hn         1 IZ2       0.357500
     46 H12         18.5560    17.1360    78.9230 ha         1 IZ2       0.121500
     47 H16         16.8000    17.2220    82.8790 ha         1 IZ2       0.121500
     48 H13         16.3200    17.3060    77.9280 ha         1 IZ2       0.117000
     49 H15         14.5530    17.3910    81.8690 ha         1 IZ2       0.117000
     50 H211        13.8990    17.1550    78.1650 hc         1 IZ2       0.060200
     51 H212        13.1750    16.8570    79.7320 hc         1 IZ2       0.060200
     52 H22         13.3160    19.2290    80.3200 h1         1 IZ2       0.120700
     53 H45         12.0820    18.9350    77.6430 hn         1 IZ2       0.484000
     54 HA          16.2340    21.1210    76.2020 h4         1 IZ2       0.169000
     55 H5C1        16.4160    23.5130    78.3420 hc         1 IZ2       0.063700
     56 H5C2        16.7330    22.7260    79.8680 hc         1 IZ2       0.063700
     57 HB          14.4360    19.2720    76.5740 hn         1 IZ2       0.351000
     58 H18         20.4730    23.1510    75.9130 ha         1 IZ2       0.114000
     59 H6          21.0210    20.6180    79.3640 ha         1 IZ2       0.114000
     60 H19         18.1180    23.5690    76.5870 ha         1 IZ2       0.109000
     61 H27         18.6580    21.0230    80.0400 ha         1 IZ2       0.109000
     62 H24         13.5980    23.8310    76.3340 ha         1 IZ2       0.130000
     63 H26         12.7090    23.1640    74.1250 ha         1 IZ2       0.132000
     64 H7          12.8920    22.6500    78.3910 ha         1 IZ2       0.156000
     65 H9          10.3380    20.0700    76.0190 ha         1 IZ2       0.142000
     66 C5          16.7820    22.5790    78.7820 c3         1 IZ2      -0.049400
     67 H17         21.9290    21.6770    77.3000 ha         1 IZ2       0.115000
@<TRIPOS>BOND
     1     1     2 1   
     2     1     5 1   
     3     1     9 1   
     4     1    42 1   
     5     2     3 1   
     6     2    43 1   
     7     2    44 1   
     8     3     4 1   
     9     3     8 2   
    10     4     5 1   
    11     4    45 1   
    12     5     6 2   
    13     5     7 2   
    14     9    10 ar  
    15     9    14 ar  
    16    10    11 ar  
    17    10    46 1   
    18    11    12 ar  
    19    11    48 1   
    20    12    13 ar  
    21    12    15 1   
    22    13    14 ar  
    23    13    49 1   
    24    14    47 1   
    25    15    16 1   
    26    15    50 1   
    27    15    51 1   
    28    16    17 1   
    29    16    22 1   
    30    16    52 1   
    31    17    18 1   
    32    17    53 1   
    33    18    30 2   
    34    18    31 2   
    35    18    35 1   
    36    19    20 2   
    37    19    21 1   
    38    19    66 1   
    39    20    23 1   
    40    20    54 1   
    41    21    22 2   
    42    22    23 1   
    43    23    57 1   
    44    24    25 ar  
    45    24    29 ar  
    46    24    67 1   
    47    25    26 ar  
    48    25    58 1   
    49    26    27 ar  
    50    26    60 1   
    51    27    28 ar  
    52    27    66 1   
    53    28    29 ar  
    54    28    61 1   
    55    29    59 1   
    56    32    33 ar  
    57    32    34 ar  
    58    32    62 1   
    59    33    37 ar  
    60    33    63 1   
    61    34    35 ar  
    62    34    64 1   
    63    35    36 ar  
    64    36    37 ar  
    65    36    65 1   
    66    37    38 1   
    67    38    39 1   
    68    38    40 1   
    69    38    41 1   
    70    55    66 1   
    71    56    66 1   
@<TRIPOS>SUBSTRUCTURE
     1 IZ2         1 TEMP              0 ****  ****    0 ROOT
