@<TRIPOS>MOLECULE
IZ3
   62    67     1     0     0
SMALL
No Charge or Current Charge


@<TRIPOS>ATOM
      1 C1          18.8100    15.9640    80.8160 c5         1 IZ3      -0.211400
      2 C2          20.1350    16.3110    80.0290 c5         1 IZ3      -0.155400
      3 C3          21.1900    15.2370    80.4230 c          1 IZ3       0.575000
      4 N4          20.5310    14.0660    80.6160 ns         1 IZ3      -0.587300
      5 S5          18.8840    14.1080    80.7530 s6         1 IZ3       1.185800
      6 O6          18.5270    13.4980    82.0370 o          1 IZ3      -0.509500
      7 O7          18.3350    13.5820    79.4990 o          1 IZ3      -0.509500
      8 O9          22.3480    15.4010    80.7660 o          1 IZ3      -0.485000
      9 C11         17.5740    16.5960    80.1550 ca         1 IZ3      -0.086300
     10 C12         17.2680    16.4420    78.7860 ca         1 IZ3      -0.081000
     11 C13         16.1210    17.0370    78.2360 ca         1 IZ3      -0.099000
     12 C14         15.2530    17.8050    79.0330 ca         1 IZ3      -0.076300
     13 C15         15.5410    17.9390    80.4070 ca         1 IZ3      -0.099000
     14 C16         16.6930    17.3480    80.9540 ca         1 IZ3      -0.081000
     15 C21         13.9970    18.4160    78.3980 c3         1 IZ3      -0.031100
     16 C22         13.5630    19.8330    78.8900 c3         1 IZ3       0.310500
     17 N45         12.1480    19.9870    78.4960 n7         1 IZ3      -0.865300
     18 S1          11.1950    21.1260    79.2600 sy         1 IZ3       1.158600
     19 O1          10.0040    20.4060    79.7160 o          1 IZ3      -0.527000
     20 O2          12.0640    21.8700    80.1750 o          1 IZ3      -0.527000
     21 C23         16.3180    20.3850    77.5300 ce         1 IZ3       0.285000
     22 C4          15.8730    20.7500    78.7480 ce         1 IZ3       0.484000
     23 N11         15.4310    21.2240    77.2230 n2         1 IZ3      -0.575900
     24 C25         14.3450    21.0610    78.3310 cx         1 IZ3       0.056100
     25 N13         15.5880    21.9060    78.7350 n2         1 IZ3      -0.520900
     26 C24          9.3630    22.6990    75.9490 ca         1 IZ3       0.150000
     27 C26         10.1910    23.7830    75.6160 ca         1 IZ3      -0.109000
     28 C7           9.6620    21.8890    77.0570 ca         1 IZ3      -0.051000
     29 C8          10.8020    22.1650    77.8460 ca         1 IZ3      -0.269500
     30 C9          11.6350    23.2550    77.5100 ca         1 IZ3      -0.026000
     31 C10         11.3280    24.0600    76.3970 ca         1 IZ3      -0.111000
     32 C17         18.8020    16.5840    75.0750 ca         1 IZ3      -0.076000
     33 C19         17.6530    17.2960    74.6920 ca         1 IZ3      -0.123000
     34 C20         17.3240    18.5050    75.3290 ca         1 IZ3      -0.070000
     35 C27         18.1360    19.0100    76.3670 ca         1 IZ3      -0.125300
     36 C5          19.2950    18.2910    76.7380 ca         1 IZ3       0.179000
     37 C6          19.6250    17.0870    76.0950 ca         1 IZ3      -0.148000
     38 F2          20.1090    18.7530    77.7130 f          1 IZ3      -0.184000
     39 H1          18.8970    16.2170    81.8800 h1         1 IZ3       0.112700
     40 H2C1        19.9670    16.1770    78.9570 hc         1 IZ3       0.099700
     41 H2C2        20.5200    17.3220    80.2040 hc         1 IZ3       0.099700
     42 H4          20.9640    13.3300    81.1480 hn         1 IZ3       0.356500
     43 H12         17.9050    15.8490    78.1360 ha         1 IZ3       0.122500
     44 H16         16.8950    17.4700    82.0160 ha         1 IZ3       0.122500
     45 H13         15.9040    16.8870    77.1810 ha         1 IZ3       0.123500
     46 H15         14.8760    18.4840    81.0710 ha         1 IZ3       0.123500
     47 H211        14.0910    18.4420    77.3060 hc         1 IZ3       0.070200
     48 H212        13.1700    17.7230    78.5990 hc         1 IZ3       0.070200
     49 H22         13.6300    19.8470    79.9870 h1         1 IZ3       0.113700
     50 H45         12.1110    20.3010    77.5280 hn         1 IZ3       0.495000
     51 H181        17.9290    21.1440    76.3340 hc         1 IZ3       0.077200
     52 H182        18.4220    20.5410    77.8900 hc         1 IZ3       0.077200
     53 H26          9.9530    24.4040    74.7560 ha         1 IZ3       0.133000
     54 H7           9.0060    21.0530    77.2940 ha         1 IZ3       0.152000
     55 H10         11.9720    24.8980    76.1410 ha         1 IZ3       0.123000
     56 H9          12.5200    23.4830    78.1030 ha         1 IZ3       0.150000
     57 H19         17.0180    16.9130    73.8960 ha         1 IZ3       0.124000
     58 H6          20.5210    16.5460    76.3890 ha         1 IZ3       0.136000
     59 H20         16.4350    19.0480    75.0160 ha         1 IZ3       0.121000
     60 C18         17.7580    20.3280    77.0460 c3         1 IZ3      -0.010400
     61 F1           8.2720    22.4330    75.1960 f          1 IZ3      -0.178000
     62 H17         19.0560    15.6500    74.5780 ha         1 IZ3       0.122000
@<TRIPOS>BOND
     1     1     2 1   
     2     1     5 1   
     3     1     9 1   
     4     1    39 1   
     5     2     3 1   
     6     2    40 1   
     7     2    41 1   
     8     3     4 1   
     9     3     8 2   
    10     4     5 1   
    11     4    42 1   
    12     5     6 2   
    13     5     7 2   
    14     9    10 ar  
    15     9    14 ar  
    16    10    11 ar  
    17    10    43 1   
    18    11    12 ar  
    19    11    45 1   
    20    12    13 ar  
    21    12    15 1   
    22    13    14 ar  
    23    13    46 1   
    24    14    44 1   
    25    15    16 1   
    26    15    47 1   
    27    15    48 1   
    28    16    17 1   
    29    16    24 1   
    30    16    49 1   
    31    17    18 1   
    32    17    50 1   
    33    18    19 2   
    34    18    20 2   
    35    18    29 1   
    36    21    22 1   
    37    21    23 2   
    38    21    60 1   
    39    22    24 1   
    40    22    25 2   
    41    23    24 1   
    42    24    25 1   
    43    26    27 ar  
    44    26    28 ar  
    45    26    61 1   
    46    27    31 ar  
    47    27    53 1   
    48    28    29 ar  
    49    28    54 1   
    50    29    30 ar  
    51    30    31 ar  
    52    30    56 1   
    53    31    55 1   
    54    32    33 ar  
    55    32    37 ar  
    56    32    62 1   
    57    33    34 ar  
    58    33    57 1   
    59    34    35 ar  
    60    34    59 1   
    61    35    36 ar  
    62    35    60 1   
    63    36    37 ar  
    64    36    38 1   
    65    37    58 1   
    66    51    60 1   
    67    52    60 1   
@<TRIPOS>SUBSTRUCTURE
     1 IZ3         1 TEMP              0 ****  ****    0 ROOT
