@<TRIPOS>MOLECULE
IZ3
   62    67     1     0     0
SMALL
abcg2


@<TRIPOS>ATOM
      1 C1          18.8930    16.6210    81.8530 c5         1 IZ3      -0.211400
      2 C2          20.0970    17.4210    81.3670 c5         1 IZ3      -0.155400
      3 C3          21.3530    16.6840    81.7790 c          1 IZ3       0.575000
      4 N4          21.0590    15.3740    82.0630 ns         1 IZ3      -0.587300
      5 S5          19.4780    14.9090    81.7410 s6         1 IZ3       1.185800
      6 O6          18.9910    14.0680    82.8160 o          1 IZ3      -0.509500
      7 O7          19.3710    14.4170    80.3800 o          1 IZ3      -0.509500
      8 O9          22.4600    17.1570    81.8450 o          1 IZ3      -0.485000
      9 C11         17.5890    16.7930    81.1410 ca         1 IZ3      -0.086300
     10 C12         17.5080    16.9100    79.7560 ca         1 IZ3      -0.081000
     11 C13         16.2760    17.0610    79.1410 ca         1 IZ3      -0.099000
     12 C14         15.1000    17.0950    79.8860 ca         1 IZ3      -0.076300
     13 C15         15.1850    16.9660    81.2680 ca         1 IZ3      -0.099000
     14 C16         16.4150    16.8140    81.8880 ca         1 IZ3      -0.081000
     15 C21         13.7790    17.3360    79.2170 c3         1 IZ3      -0.031100
     16 C22         13.4240    18.8320    79.2130 c3         1 IZ3       0.310500
     17 N45         12.1950    18.9890    78.4470 n7         1 IZ3      -0.865300
     18 S1          11.3540    20.4080    78.4740 sy         1 IZ3       1.158600
     19 O1          10.1300    20.1570    77.7360 o          1 IZ3      -0.527000
     20 O2          11.3100    20.8400    79.8590 o          1 IZ3      -0.527000
     21 C23         15.8510    20.4270    77.0450 ce         1 IZ3       0.285000
     22 C4          16.1820    20.5290    78.3610 ce         1 IZ3       0.484000
     23 N11         14.7840    19.6360    77.2980 n2         1 IZ3      -0.575900
     24 C25         14.5260    19.6650    78.6340 cx         1 IZ3       0.056100
     25 N13         15.4060    20.3680    79.3710 n2         1 IZ3      -0.520900
     26 C24         13.0160    22.4700    75.4800 ca         1 IZ3       0.150000
     27 C26         13.8910    23.3340    76.1110 ca         1 IZ3      -0.109000
     28 C7          12.2150    21.5880    76.1750 ca         1 IZ3      -0.051000
     29 C8          12.3040    21.5990    77.5600 ca         1 IZ3      -0.269500
     30 C9          13.1570    22.4580    78.2350 ca         1 IZ3      -0.026000
     31 C10         13.9550    23.3210    77.4970 ca         1 IZ3      -0.111000
     32 C17         15.9320    17.4930    72.9430 ca         1 IZ3      -0.076000
     33 C19         15.2950    18.7070    72.7260 ca         1 IZ3      -0.123000
     34 C20         15.4710    19.7510    73.6250 ca         1 IZ3      -0.070000
     35 C27         16.2790    19.6070    74.7470 ca         1 IZ3      -0.125300
     36 C5          16.8960    18.3790    74.9300 ca         1 IZ3       0.179000
     37 C6          16.7430    17.3210    74.0580 ca         1 IZ3      -0.148000
     38 F2          17.6730    18.2150    76.0150 f          1 IZ3      -0.184000
     39 H1          18.7590    16.7880    82.9240 h1         1 IZ3       0.112700
     40 H2C1        20.1100    17.5260    80.2800 hc         1 IZ3       0.099700
     41 H2C2        20.0930    18.4230    81.7930 hc         1 IZ3       0.099700
     42 H4          21.7790    14.6850    82.2570 hn         1 IZ3       0.356500
     43 H12         18.3990    16.8920    79.1430 ha         1 IZ3       0.122500
     44 H16         16.4620    16.7220    82.9660 ha         1 IZ3       0.122500
     45 H13         16.2300    17.1570    78.0640 ha         1 IZ3       0.123500
     46 H15         14.2850    16.9860    81.8700 ha         1 IZ3       0.123500
     47 H211        13.8160    16.9830    78.1840 hc         1 IZ3       0.070200
     48 H212        12.9800    16.7930    79.7240 hc         1 IZ3       0.070200
     49 H22         13.2450    19.1570    80.2390 h1         1 IZ3       0.113700
     50 H45         12.2130    18.5610    77.5260 hn         1 IZ3       0.495000
     51 H181        16.0260    21.6390    75.3330 hc         1 IZ3       0.077200
     52 H182        17.5280    20.9460    75.8880 hc         1 IZ3       0.077200
     53 H26         14.5050    24.0090    75.5300 ha         1 IZ3       0.133000
     54 H7          11.5450    20.9250    75.6420 ha         1 IZ3       0.152000
     55 H10         14.6290    23.9950    78.0070 ha         1 IZ3       0.123000
     56 H9          13.2090    22.4630    79.3140 ha         1 IZ3       0.150000
     57 H19         14.6610    18.8420    71.8600 ha         1 IZ3       0.124000
     58 H6          17.2490    16.3830    74.2450 ha         1 IZ3       0.136000
     59 H20         14.9690    20.6950    73.4560 ha         1 IZ3       0.121000
     60 C18         16.4710    20.7240    75.7340 c3         1 IZ3      -0.010400
     61 F1          12.9450    22.4830    74.1420 f          1 IZ3      -0.178000
     62 H17         15.7990    16.6740    72.2490 ha         1 IZ3       0.122000
@<TRIPOS>BOND
     1     1     2 1   
     2     1     5 1   
     3     1     9 1   
     4     1    39 1   
     5     2     3 1   
     6     2    40 1   
     7     2    41 1   
     8     3     4 1   
     9     3     8 2   
    10     4     5 1   
    11     4    42 1   
    12     5     6 2   
    13     5     7 2   
    14     9    10 ar  
    15     9    14 ar  
    16    10    11 ar  
    17    10    43 1   
    18    11    12 ar  
    19    11    45 1   
    20    12    13 ar  
    21    12    15 1   
    22    13    14 ar  
    23    13    46 1   
    24    14    44 1   
    25    15    16 1   
    26    15    47 1   
    27    15    48 1   
    28    16    17 1   
    29    16    24 1   
    30    16    49 1   
    31    17    18 1   
    32    17    50 1   
    33    18    19 2   
    34    18    20 2   
    35    18    29 1   
    36    21    22 1   
    37    21    23 2   
    38    21    60 1   
    39    22    24 1   
    40    22    25 2   
    41    23    24 1   
    42    24    25 1   
    43    26    27 ar  
    44    26    28 ar  
    45    26    61 1   
    46    27    31 ar  
    47    27    53 1   
    48    28    29 ar  
    49    28    54 1   
    50    29    30 ar  
    51    30    31 ar  
    52    30    56 1   
    53    31    55 1   
    54    32    33 ar  
    55    32    37 ar  
    56    32    62 1   
    57    33    34 ar  
    58    33    57 1   
    59    34    35 ar  
    60    34    59 1   
    61    35    36 ar  
    62    35    60 1   
    63    36    37 ar  
    64    36    38 1   
    65    37    58 1   
    66    51    60 1   
    67    52    60 1   
@<TRIPOS>SUBSTRUCTURE
     1 IZ3         1 TEMP              0 ****  ****    0 ROOT
