@<TRIPOS>MOLECULE
IZ4
   69    73     1     0     0
SMALL
abcg2


@<TRIPOS>ATOM
      1 C1          18.6830    17.1810    81.8060 c5         1 IZ4      -0.218400
      2 C2          19.8610    17.6540    80.9600 c5         1 IZ4      -0.155400
      3 C3          21.1150    16.9780    81.4700 c          1 IZ4       0.576000
      4 N4          20.7870    15.8700    82.2080 ns         1 IZ4      -0.587300
      5 S5          19.1530    15.4880    82.2540 s6         1 IZ4       1.189800
      6 O6          18.7750    15.1320    83.6070 o          1 IZ4      -0.507000
      7 O7          18.8240    14.5650    81.1840 o          1 IZ4      -0.507000
      8 O9          22.2460    17.3370    81.2590 o          1 IZ4      -0.482000
      9 C11         17.3150    17.2190    81.1980 ca         1 IZ4      -0.087300
     10 C12         17.0810    16.8420    79.8790 ca         1 IZ4      -0.088000
     11 C13         15.8020    16.8990    79.3520 ca         1 IZ4      -0.104000
     12 C14         14.7250    17.3240    80.1270 ca         1 IZ4      -0.079300
     13 C15         14.9610    17.6810    81.4510 ca         1 IZ4      -0.104000
     14 C16         16.2400    17.6290    81.9810 ca         1 IZ4      -0.088000
     15 C21         13.3570    17.4730    79.5260 c3         1 IZ4      -0.027100
     16 C22         13.0910    18.9330    79.1250 c3         1 IZ4       0.187200
     17 N45         11.8090    18.9890    78.4330 n7         1 IZ4      -0.845300
     18 S1          10.9920    20.4200    78.3520 sy         1 IZ4       1.145600
     19 O1           9.7880    20.1430    77.5900 o          1 IZ4      -0.528500
     20 O2          10.9030    20.9300    79.7090 o          1 IZ4      -0.528500
     21 C23         15.5120    19.8080    76.5250 c5         1 IZ4       0.101500
     22 C4          16.2230    20.3710    77.7810 c5         1 IZ4       0.168800
     23 N11         14.3080    19.1480    77.0240 n2         1 IZ4      -0.644900
     24 C25         14.2140    19.4430    78.2580 c2         1 IZ4       0.535200
     25 N13         15.1670    20.2660    78.7730 nu         1 IZ4      -0.904400
     26 C24         12.7970    22.2850    75.3130 ca         1 IZ4       0.152000
     27 C26         13.5750    23.2530    75.9250 ca         1 IZ4      -0.105000
     28 C7          11.9920    21.4250    76.0270 ca         1 IZ4      -0.052000
     29 C8          11.9850    21.5530    77.4100 ca         1 IZ4      -0.276500
     30 C9          12.7530    22.5030    78.0630 ca         1 IZ4      -0.017000
     31 C10         13.5460    23.3550    77.3050 ca         1 IZ4      -0.105000
     32 C18         16.3910    18.8720    75.7140 c3         1 IZ4      -0.060400
     33 C17         17.3050    17.9000    72.5900 ca         1 IZ4      -0.108500
     34 C19         16.5920    17.4110    73.6830 ca         1 IZ4      -0.081300
     35 C20         16.7730    16.0780    74.0480 ca         1 IZ4      -0.108500
     36 C28         17.6420    15.2560    73.3430 ca         1 IZ4      -0.109000
     37 C5          18.3470    15.7560    72.2550 ca         1 IZ4      -0.111000
     38 C6          18.1740    17.0810    71.8800 ca         1 IZ4      -0.109000
     39 H1          18.6860    17.7230    82.7550 h1         1 IZ4       0.112700
     40 H2C1        19.7460    17.3920    79.9060 hc         1 IZ4       0.097700
     41 H2C2        19.9670    18.7360    81.0200 hc         1 IZ4       0.097700
     42 H4          21.4850    15.2190    82.5550 hn         1 IZ4       0.359500
     43 H12         17.8900    16.5050    79.2440 ha         1 IZ4       0.124000
     44 H16         16.4030    17.9200    83.0110 ha         1 IZ4       0.124000
     45 H13         15.6380    16.6230    78.3180 ha         1 IZ4       0.127500
     46 H15         14.1380    18.0120    82.0740 ha         1 IZ4       0.127500
     47 H211        13.2680    16.8430    78.6390 hc         1 IZ4       0.075200
     48 H212        12.5850    17.1650    80.2330 hc         1 IZ4       0.075200
     49 H22         13.0220    19.5340    80.0330 h1         1 IZ4       0.093700
     50 H45         11.8460    18.5280    77.5260 hn         1 IZ4       0.497000
     51 H23         15.2000    20.6360    75.8760 h1         1 IZ4       0.073700
     52 H4C1        17.0930    19.7650    78.0620 h1         1 IZ4       0.050700
     53 H4C2        16.5560    21.4010    77.6500 h1         1 IZ4       0.050700
     54 H181        17.2910    19.4140    75.4070 hc         1 IZ4       0.042700
     55 H182        16.7300    18.0500    76.3550 hc         1 IZ4       0.042700
     56 HA          15.3890    20.2420    79.7570 hn         1 IZ4       0.488000
     57 H26         14.1910    23.9130    75.3290 ha         1 IZ4       0.133000
     58 H7          11.3940    20.6850    75.5120 ha         1 IZ4       0.150000
     59 H10         14.1460    24.1070    77.7990 ha         1 IZ4       0.122000
     60 H9          12.7380    22.5940    79.1390 ha         1 IZ4       0.141000
     61 H271        14.8000    17.7570    74.8010 hc         1 IZ4       0.056700
     62 H272        15.3360    19.1330    73.8570 hc         1 IZ4       0.056700
     63 H6          18.7150    17.4800    71.0310 ha         1 IZ4       0.112000
     64 H20         16.2250    15.6780    74.8940 ha         1 IZ4       0.110000
     65 H28         17.7660    14.2230    73.6410 ha         1 IZ4       0.112000
     66 H5          19.0250    15.1160    71.7050 ha         1 IZ4       0.113000
     67 C27         15.6880    18.3060    74.4810 c3         1 IZ4      -0.027100
     68 F1          12.8260    22.1810    73.9780 f          1 IZ4      -0.174000
     69 H17         17.1760    18.9330    72.2890 ha         1 IZ4       0.110000
@<TRIPOS>BOND
     1     1     2 1   
     2     1     5 1   
     3     1     9 1   
     4     1    39 1   
     5     2     3 1   
     6     2    40 1   
     7     2    41 1   
     8     3     4 1   
     9     3     8 2   
    10     4     5 1   
    11     4    42 1   
    12     5     6 2   
    13     5     7 2   
    14     9    10 ar  
    15     9    14 ar  
    16    10    11 ar  
    17    10    43 1   
    18    11    12 ar  
    19    11    45 1   
    20    12    13 ar  
    21    12    15 1   
    22    13    14 ar  
    23    13    46 1   
    24    14    44 1   
    25    15    16 1   
    26    15    47 1   
    27    15    48 1   
    28    16    17 1   
    29    16    24 1   
    30    16    49 1   
    31    17    18 1   
    32    17    50 1   
    33    18    19 2   
    34    18    20 2   
    35    18    29 1   
    36    21    22 1   
    37    21    23 1   
    38    21    32 1   
    39    21    51 1   
    40    22    25 1   
    41    22    52 1   
    42    22    53 1   
    43    23    24 2   
    44    24    25 1   
    45    25    56 1   
    46    26    27 ar  
    47    26    28 ar  
    48    26    68 1   
    49    27    31 ar  
    50    27    57 1   
    51    28    29 ar  
    52    28    58 1   
    53    29    30 ar  
    54    30    31 ar  
    55    30    60 1   
    56    31    59 1   
    57    32    54 1   
    58    32    55 1   
    59    32    67 1   
    60    33    34 ar  
    61    33    38 ar  
    62    33    69 1   
    63    34    35 ar  
    64    34    67 1   
    65    35    36 ar  
    66    35    64 1   
    67    36    37 ar  
    68    36    65 1   
    69    37    38 ar  
    70    37    66 1   
    71    38    63 1   
    72    61    67 1   
    73    62    67 1   
@<TRIPOS>SUBSTRUCTURE
     1 IZ4         1 TEMP              0 ****  ****    0 ROOT
