@<TRIPOS>MOLECULE
IZ4
   69    73     1     0     0
SMALL
No Charge or Current Charge


@<TRIPOS>ATOM
      1 C1          18.5140    16.5580    82.9520 c5         1 IZ4      -0.218400
      2 C2          19.8320    17.0600    82.2390 c5         1 IZ4      -0.155400
      3 C3          21.0170    16.2720    82.8700 c          1 IZ4       0.576000
      4 N4          20.5670    15.0280    83.1770 ns         1 IZ4      -0.587300
      5 S5          18.9350    14.7610    83.1700 s6         1 IZ4       1.189800
      6 O6          18.5600    14.2650    84.4980 o          1 IZ4      -0.507000
      7 O7          18.6330    13.9770    81.9680 o          1 IZ4      -0.507000
      8 O9          22.0810    16.7020    83.2800 o          1 IZ4      -0.482000
      9 C11         17.2670    16.8460    82.0990 ca         1 IZ4      -0.087300
     10 C12         17.1500    16.4500    80.7480 ca         1 IZ4      -0.088000
     11 C13         15.9910    16.7460    80.0120 ca         1 IZ4      -0.104000
     12 C14         14.9260    17.4440    80.6080 ca         1 IZ4      -0.079300
     13 C15         15.0330    17.8380    81.9540 ca         1 IZ4      -0.104000
     14 C16         16.1920    17.5400    82.6900 ca         1 IZ4      -0.088000
     15 C21         13.6860    17.8030    79.7970 c3         1 IZ4      -0.027100
     16 C22         13.6620    19.2910    79.3760 c3         1 IZ4       0.187200
     17 N45         12.3920    19.5430    78.6320 n7         1 IZ4      -0.845300
     18 S1          11.8770    21.1180    78.4190 sy         1 IZ4       1.145600
     19 O1          10.5420    21.1820    79.0180 o          1 IZ4      -0.528500
     20 O2          12.9730    21.9950    78.8360 o          1 IZ4      -0.528500
     21 C23         16.3240    20.0650    76.9000 c5         1 IZ4       0.101500
     22 C4          17.1460    19.9150    78.2120 c5         1 IZ4       0.168800
     23 N11         14.9700    19.5780    77.2600 n2         1 IZ4      -0.644900
     24 C25         14.9160    19.6530    78.5390 c2         1 IZ4       0.535200
     25 N13         16.0570    20.0740    79.1980 nu         1 IZ4      -0.904400
     26 C24         10.5050    20.6270    74.5890 ca         1 IZ4       0.152000
     27 C26         11.5630    21.1200    73.8090 ca         1 IZ4      -0.105000
     28 C7          10.5920    20.6300    75.9910 ca         1 IZ4      -0.052000
     29 C8          11.7500    21.1340    76.6250 ca         1 IZ4      -0.276500
     30 C9          12.8130    21.6320    75.8390 ca         1 IZ4      -0.017000
     31 C10         12.7180    21.6230    74.4350 ca         1 IZ4      -0.105000
     32 C18         16.8880    19.2730    75.6950 c3         1 IZ4      -0.060400
     33 C17         17.6640    19.3450    72.3750 ca         1 IZ4      -0.108500
     34 C19         16.7260    18.7140    73.2150 ca         1 IZ4      -0.081300
     35 C20         16.3750    17.3710    72.9750 ca         1 IZ4      -0.108500
     36 C28         16.9540    16.6670    71.9040 ca         1 IZ4      -0.109000
     37 C5          17.8880    17.3030    71.0680 ca         1 IZ4      -0.111000
     38 C6          18.2430    18.6420    71.3050 ca         1 IZ4      -0.109000
     39 H1          18.4310    16.9560    83.9700 h1         1 IZ4       0.112700
     40 H2C1        19.8120    16.7690    81.1840 hc         1 IZ4       0.097700
     41 H2C2        20.0030    18.1400    82.3020 hc         1 IZ4       0.097700
     42 H4          21.0670    14.4650    83.8440 hn         1 IZ4       0.359500
     43 H12         17.9520    15.9080    80.2550 ha         1 IZ4       0.124000
     44 H16         16.2560    17.8570    83.7280 ha         1 IZ4       0.124000
     45 H13         15.9280    16.4380    78.9700 ha         1 IZ4       0.127500
     46 H15         14.2200    18.3800    82.4320 ha         1 IZ4       0.127500
     47 H211        13.6220    17.1750    78.9000 hc         1 IZ4       0.075200
     48 H212        12.7850    17.5860    80.3850 hc         1 IZ4       0.075200
     49 H22         13.6800    19.8870    80.2990 h1         1 IZ4       0.093700
     50 H45         12.5610    19.2790    77.6600 hn         1 IZ4       0.497000
     51 H23         16.2630    21.1250    76.6150 h1         1 IZ4       0.073700
     52 H4C1        17.6060    18.9180    78.2800 h1         1 IZ4       0.050700
     53 H4C2        17.9370    20.6720    78.3020 h1         1 IZ4       0.050700
     54 H181        17.9270    19.5780    75.5230 hc         1 IZ4       0.042700
     55 H182        16.9160    18.2020    75.9330 hc         1 IZ4       0.042700
     56 HA          16.1760    19.6870    80.1340 hn         1 IZ4       0.488000
     57 H26         11.4870    21.1120    72.7250 ha         1 IZ4       0.133000
     58 H7           9.7620    20.2380    76.5760 ha         1 IZ4       0.150000
     59 H10         13.5400    22.0040    73.8340 ha         1 IZ4       0.122000
     60 H9          13.7160    22.0210    76.3070 ha         1 IZ4       0.141000
     61 H271        15.0630    19.1470    74.5200 hc         1 IZ4       0.056700
     62 H272        16.0530    20.5440    74.1480 hc         1 IZ4       0.056700
     63 H6          18.9670    19.1340    70.6590 ha         1 IZ4       0.112000
     64 H20         15.6550    16.8710    73.6190 ha         1 IZ4       0.110000
     65 H28         16.6800    15.6300    71.7230 ha         1 IZ4       0.112000
     66 H5          18.3360    16.7590    70.2400 ha         1 IZ4       0.113000
     67 C27         16.1010    19.4730    74.3790 c3         1 IZ4      -0.027100
     68 F1           9.3960    20.1430    73.9860 f          1 IZ4      -0.174000
     69 H17         17.9460    20.3810    72.5530 ha         1 IZ4       0.110000
@<TRIPOS>BOND
     1     1     2 1   
     2     1     5 1   
     3     1     9 1   
     4     1    39 1   
     5     2     3 1   
     6     2    40 1   
     7     2    41 1   
     8     3     4 1   
     9     3     8 2   
    10     4     5 1   
    11     4    42 1   
    12     5     6 2   
    13     5     7 2   
    14     9    10 ar  
    15     9    14 ar  
    16    10    11 ar  
    17    10    43 1   
    18    11    12 ar  
    19    11    45 1   
    20    12    13 ar  
    21    12    15 1   
    22    13    14 ar  
    23    13    46 1   
    24    14    44 1   
    25    15    16 1   
    26    15    47 1   
    27    15    48 1   
    28    16    17 1   
    29    16    24 1   
    30    16    49 1   
    31    17    18 1   
    32    17    50 1   
    33    18    19 2   
    34    18    20 2   
    35    18    29 1   
    36    21    22 1   
    37    21    23 1   
    38    21    32 1   
    39    21    51 1   
    40    22    25 1   
    41    22    52 1   
    42    22    53 1   
    43    23    24 2   
    44    24    25 1   
    45    25    56 1   
    46    26    27 ar  
    47    26    28 ar  
    48    26    68 1   
    49    27    31 ar  
    50    27    57 1   
    51    28    29 ar  
    52    28    58 1   
    53    29    30 ar  
    54    30    31 ar  
    55    30    60 1   
    56    31    59 1   
    57    32    54 1   
    58    32    55 1   
    59    32    67 1   
    60    33    34 ar  
    61    33    38 ar  
    62    33    69 1   
    63    34    35 ar  
    64    34    67 1   
    65    35    36 ar  
    66    35    64 1   
    67    36    37 ar  
    68    36    65 1   
    69    37    38 ar  
    70    37    66 1   
    71    38    63 1   
    72    61    67 1   
    73    62    67 1   
@<TRIPOS>SUBSTRUCTURE
     1 IZ4         1 TEMP              0 ****  ****    0 ROOT
