@<TRIPOS>MOLECULE
IZ5
   70    74     1     0     0
SMALL
No Charge or Current Charge


@<TRIPOS>ATOM
      1 C1          18.8690    15.9800    80.0040 c5         1 IZ5      -0.216400
      2 C2          19.8600    16.5140    78.8940 c5         1 IZ5      -0.156400
      3 C3          21.1030    15.5800    78.8970 c          1 IZ5       0.577000
      4 N4          20.6760    14.3290    79.2080 ns         1 IZ5      -0.587300
      5 S5          19.1510    14.1510    79.8230 s6         1 IZ5       1.188800
      6 O6          19.2710    13.4820    81.1220 o          1 IZ5      -0.506000
      7 O7          18.3240    13.5710    78.7600 o          1 IZ5      -0.506000
      8 O9          22.2820    15.8860    78.8960 o          1 IZ5      -0.484000
      9 C11         17.4310    16.4590    79.7410 ca         1 IZ5      -0.089300
     10 C12         16.7780    16.2710    78.5040 ca         1 IZ5      -0.087500
     11 C13         15.4750    16.7510    78.2980 ca         1 IZ5      -0.102000
     12 C14         14.7890    17.4220    79.3260 ca         1 IZ5      -0.077300
     13 C15         15.4270    17.6000    80.5680 ca         1 IZ5      -0.102000
     14 C16         16.7350    17.1250    80.7700 ca         1 IZ5      -0.087500
     15 C21         13.3860    17.9730    79.0790 c3         1 IZ5      -0.027100
     16 C22         13.3260    19.5200    79.1140 c3         1 IZ5       0.199200
     17 N45         11.9770    19.9520    78.6670 n7         1 IZ5      -0.849300
     18 S1          11.5110    21.5390    78.9090 sy         1 IZ5       1.149600
     19 O1          10.1480    21.4740    79.4410 o          1 IZ5      -0.531500
     20 O2          12.6040    22.2000    79.6270 o          1 IZ5      -0.531500
     21 C23         15.7250    20.6340    76.6280 cc         1 IZ5       0.253300
     22 C4          16.2650    21.2890    77.7010 cd         1 IZ5      -0.221000
     23 N11         14.5980    19.9470    76.9770 nc         1 IZ5      -0.680000
     24 C25         14.4500    20.1400    78.2810 cd         1 IZ5       0.338800
     25 N13         15.4410    20.9720    78.7690 na         1 IZ5      -0.277500
     26 C24         12.6190    23.1520    75.3030 ca         1 IZ5      -0.103000
     27 C26         11.4700    22.9640    74.5140 ca         1 IZ5      -0.100000
     28 C7          12.6330    22.7260    76.6440 ca         1 IZ5      -0.033000
     29 C8          11.4930    22.1050    77.2020 ca         1 IZ5      -0.269500
     30 C9          10.3410    21.9180    76.4050 ca         1 IZ5      -0.048000
     31 C10         10.3360    22.3490    75.0680 ca         1 IZ5       0.159000
     32 C17         19.1300    15.3430    74.9020 ca         1 IZ5      -0.108000
     33 C18         20.5320    15.4210    74.9270 ca         1 IZ5      -0.110000
     34 C19         21.1600    16.6380    75.2400 ca         1 IZ5      -0.108000
     35 C20         20.3860    17.7750    75.5280 ca         1 IZ5      -0.107500
     36 C27         18.9770    17.7070    75.5050 ca         1 IZ5      -0.079300
     37 C6          18.3560    16.4800    75.1900 ca         1 IZ5      -0.107500
     38 F1           9.2330    22.1680    74.3080 f          1 IZ5      -0.174000
     39 C30         16.9950    19.2560    74.9030 c3         1 IZ5      -0.067400
     40 C29         18.1530    18.9360    75.8820 c3         1 IZ5      -0.031100
     41 H1          19.2220    16.2280    81.0130 h1         1 IZ5       0.111700
     42 H2C1        19.4020    16.3780    77.9110 hc         1 IZ5       0.098200
     43 H2C2        20.1530    17.5630    79.0050 hc         1 IZ5       0.098200
     44 H4          21.3320    13.6460    79.5450 hn         1 IZ5       0.358500
     45 H12         17.2720    15.7520    77.6880 ha         1 IZ5       0.124000
     46 H16         17.2130    17.2830    81.7340 ha         1 IZ5       0.124000
     47 H13         15.0020    16.6070    77.3290 ha         1 IZ5       0.126500
     48 H15         14.9140    18.1140    81.3780 ha         1 IZ5       0.126500
     49 H211        13.0140    17.6250    78.1080 hc         1 IZ5       0.073200
     50 H212        12.6910    17.5740    79.8280 hc         1 IZ5       0.073200
     51 H22         13.4880    19.8150    80.1610 h1         1 IZ5       0.087700
     52 H45         11.9790    19.9150    77.6470 hn         1 IZ5       0.496000
     53 HA          17.1500    21.9110    77.7790 h4         1 IZ5       0.162000
     54 H5C1        15.4460    20.7260    74.5090 hc         1 IZ5       0.048200
     55 H5C2        16.9580    21.4190    75.0710 hc         1 IZ5       0.048200
     56 HB          15.5320    21.2830    79.7290 hn         1 IZ5       0.360000
     57 H24         13.5000    23.6260    74.8770 ha         1 IZ5       0.118000
     58 H26         11.4580    23.2920    73.4780 ha         1 IZ5       0.134000
     59 H7          13.5310    22.8780    77.2390 ha         1 IZ5       0.133000
     60 H9           9.4510    21.4410    76.8120 ha         1 IZ5       0.153000
     61 H301        16.2610    18.4420    74.9210 hc         1 IZ5       0.052200
     62 H302        17.3900    19.3060    73.8810 hc         1 IZ5       0.052200
     63 H18         21.1310    14.5400    74.7070 ha         1 IZ5       0.112000
     64 H6          17.2720    16.3960    75.1840 ha         1 IZ5       0.108500
     65 H19         22.2450    16.6990    75.2640 ha         1 IZ5       0.111500
     66 H20         20.8840    18.7080    75.7820 ha         1 IZ5       0.108500
     67 H291        17.7410    18.7860    76.8880 hc         1 IZ5       0.042200
     68 H292        18.8030    19.8170    75.9480 hc         1 IZ5       0.042200
     69 C5          16.2650    20.5830    75.2250 c3         1 IZ5      -0.094700
     70 H17         18.6430    14.4000    74.6650 ha         1 IZ5       0.111500
@<TRIPOS>BOND
     1     1     2 1   
     2     1     5 1   
     3     1     9 1   
     4     1    41 1   
     5     2     3 1   
     6     2    42 1   
     7     2    43 1   
     8     3     4 1   
     9     3     8 2   
    10     4     5 1   
    11     4    44 1   
    12     5     6 2   
    13     5     7 2   
    14     9    10 ar  
    15     9    14 ar  
    16    10    11 ar  
    17    10    45 1   
    18    11    12 ar  
    19    11    47 1   
    20    12    13 ar  
    21    12    15 1   
    22    13    14 ar  
    23    13    48 1   
    24    14    46 1   
    25    15    16 1   
    26    15    49 1   
    27    15    50 1   
    28    16    17 1   
    29    16    24 1   
    30    16    51 1   
    31    17    18 1   
    32    17    52 1   
    33    18    19 2   
    34    18    20 2   
    35    18    29 1   
    36    21    22 2   
    37    21    23 1   
    38    21    69 1   
    39    22    25 1   
    40    22    53 1   
    41    23    24 2   
    42    24    25 1   
    43    25    56 1   
    44    26    27 ar  
    45    26    28 ar  
    46    26    57 1   
    47    27    31 ar  
    48    27    58 1   
    49    28    29 ar  
    50    28    59 1   
    51    29    30 ar  
    52    30    31 ar  
    53    30    60 1   
    54    31    38 1   
    55    32    33 ar  
    56    32    37 ar  
    57    32    70 1   
    58    33    34 ar  
    59    33    63 1   
    60    34    35 ar  
    61    34    65 1   
    62    35    36 ar  
    63    35    66 1   
    64    36    37 ar  
    65    36    40 1   
    66    37    64 1   
    67    39    40 1   
    68    39    61 1   
    69    39    62 1   
    70    39    69 1   
    71    40    67 1   
    72    40    68 1   
    73    54    69 1   
    74    55    69 1   
@<TRIPOS>SUBSTRUCTURE
     1 IZ5         1 TEMP              0 ****  ****    0 ROOT
