@<TRIPOS>MOLECULE
IZ5
   70    74     1     0     0
SMALL
abcg2


@<TRIPOS>ATOM
      1 C1          18.9950    16.9900    81.3400 c5         1 IZ5      -0.216400
      2 C2          20.1450    17.8230    80.7840 c5         1 IZ5      -0.156400
      3 C3          21.4450    17.1830    81.2160 c          1 IZ5       0.577000
      4 N4          21.2300    15.8750    81.5670 ns         1 IZ5      -0.587300
      5 S5          19.6690    15.3070    81.3220 s6         1 IZ5       1.188800
      6 O6          19.2580    14.5170    82.4650 o          1 IZ5      -0.506000
      7 O7          19.5540    14.7190    80.0000 o          1 IZ5      -0.506000
      8 O9          22.5240    17.7200    81.2420 o          1 IZ5      -0.484000
      9 C11         17.6720    17.0590    80.6450 ca         1 IZ5      -0.089300
     10 C12         17.5610    17.0600    79.2570 ca         1 IZ5      -0.087500
     11 C13         16.3150    17.1360    78.6600 ca         1 IZ5      -0.102000
     12 C14         15.1520    17.2110    79.4220 ca         1 IZ5      -0.077300
     13 C15         15.2670    17.1940    80.8080 ca         1 IZ5      -0.102000
     14 C16         16.5120    17.1160    81.4120 ca         1 IZ5      -0.087500
     15 C21         13.8140    17.3860    78.7660 c3         1 IZ5      -0.027100
     16 C22         13.4430    18.8760    78.6650 c3         1 IZ5       0.199200
     17 N45         12.1480    18.9610    77.9950 n7         1 IZ5      -0.849300
     18 S1          11.2580    20.3480    78.0860 sy         1 IZ5       1.149600
     19 O1          10.0210    20.0710    77.3780 o          1 IZ5      -0.531500
     20 O2          11.2350    20.7400    79.4840 o          1 IZ5      -0.531500
     21 C23         15.7450    20.4380    76.3890 cc         1 IZ5       0.253300
     22 C4          16.2650    20.8890    77.5710 cd         1 IZ5      -0.221000
     23 N11         14.6530    19.6550    76.6410 nc         1 IZ5      -0.680000
     24 C25         14.5040    19.6470    77.9410 cd         1 IZ5       0.338800
     25 N13         15.4580    20.3780    78.5470 na         1 IZ5      -0.277500
     26 C24         13.7790    23.3250    77.1100 ca         1 IZ5      -0.103000
     27 C26         13.6370    23.4070    75.7340 ca         1 IZ5      -0.100000
     28 C7          13.0250    22.4250    77.8480 ca         1 IZ5      -0.033000
     29 C8          12.1360    21.5970    77.1810 ca         1 IZ5      -0.269500
     30 C9          11.9670    21.6560    75.8050 ca         1 IZ5      -0.048000
     31 C10         12.7300    22.5710    75.1110 ca         1 IZ5       0.159000
     32 C17         17.0650    14.9770    73.6520 ca         1 IZ5      -0.108000
     33 C18         18.0350    14.8520    72.6640 ca         1 IZ5      -0.110000
     34 C19         18.8680    15.9270    72.3850 ca         1 IZ5      -0.108000
     35 C20         18.7320    17.1180    73.0890 ca         1 IZ5      -0.107500
     36 C27         17.7650    17.2560    74.0810 ca         1 IZ5      -0.079300
     37 C6          16.9340    16.1690    74.3510 ca         1 IZ5      -0.107500
     38 F1          12.5860    22.6490    73.7800 f          1 IZ5      -0.174000
     39 C30         16.4740    19.4130    74.2110 c3         1 IZ5      -0.067400
     40 C29         17.5830    18.5530    74.8170 c3         1 IZ5      -0.031100
     41 H1          18.8690    17.2140    82.4020 h1         1 IZ5       0.111700
     42 H2C1        20.1400    17.8600    79.6930 hc         1 IZ5       0.098200
     43 H2C2        20.0880    18.8480    81.1470 hc         1 IZ5       0.098200
     44 H4          21.9900    15.2380    81.7890 hn         1 IZ5       0.358500
     45 H12         18.4410    17.0110    78.6290 ha         1 IZ5       0.124000
     46 H16         16.5820    17.1110    82.4930 ha         1 IZ5       0.124000
     47 H13         16.2420    17.1480    77.5800 ha         1 IZ5       0.126500
     48 H15         14.3790    17.2470    81.4250 ha         1 IZ5       0.126500
     49 H211        13.8310    16.9600    77.7600 hc         1 IZ5       0.073200
     50 H212        13.0340    16.8720    79.3310 hc         1 IZ5       0.073200
     51 H22         13.3260    19.2670    79.6780 h1         1 IZ5       0.087700
     52 H45         12.1700    18.5930    77.0480 hn         1 IZ5       0.496000
     53 HA          17.1100    21.5190    77.7910 h4         1 IZ5       0.162000
     54 H5C1        15.4760    21.2960    74.4660 hc         1 IZ5       0.048200
     55 H5C2        17.1310    21.3010    75.0340 hc         1 IZ5       0.048200
     56 HB          15.5660    20.5210    79.5380 hn         1 IZ5       0.360000
     57 H24         14.4820    23.9740    77.6140 ha         1 IZ5       0.118000
     58 H26         14.2210    24.1070    75.1520 ha         1 IZ5       0.134000
     59 H7          13.1380    22.3770    78.9220 ha         1 IZ5       0.133000
     60 H9          11.2720    21.0140    75.2800 ha         1 IZ5       0.153000
     61 H301        15.5490    18.8330    74.1650 hc         1 IZ5       0.052200
     62 H302        16.7350    19.6670    73.1800 hc         1 IZ5       0.052200
     63 H18         18.1400    13.9230    72.1190 ha         1 IZ5       0.112000
     64 H6          16.1740    16.2570    75.1200 ha         1 IZ5       0.108500
     65 H19         19.6280    15.8400    71.6200 ha         1 IZ5       0.111500
     66 H20         19.3910    17.9490    72.8650 ha         1 IZ5       0.108500
     67 H291        17.3430    18.3510    75.8650 hc         1 IZ5       0.042200
     68 H292        18.5190    19.1180    74.8200 hc         1 IZ5       0.042200
     69 C5          16.2200    20.6970    75.0000 c3         1 IZ5      -0.094700
     70 H17         16.4120    14.1450    73.8810 ha         1 IZ5       0.111500
@<TRIPOS>BOND
     1     1     2 1   
     2     1     5 1   
     3     1     9 1   
     4     1    41 1   
     5     2     3 1   
     6     2    42 1   
     7     2    43 1   
     8     3     4 1   
     9     3     8 2   
    10     4     5 1   
    11     4    44 1   
    12     5     6 2   
    13     5     7 2   
    14     9    10 ar  
    15     9    14 ar  
    16    10    11 ar  
    17    10    45 1   
    18    11    12 ar  
    19    11    47 1   
    20    12    13 ar  
    21    12    15 1   
    22    13    14 ar  
    23    13    48 1   
    24    14    46 1   
    25    15    16 1   
    26    15    49 1   
    27    15    50 1   
    28    16    17 1   
    29    16    24 1   
    30    16    51 1   
    31    17    18 1   
    32    17    52 1   
    33    18    19 2   
    34    18    20 2   
    35    18    29 1   
    36    21    22 2   
    37    21    23 1   
    38    21    69 1   
    39    22    25 1   
    40    22    53 1   
    41    23    24 2   
    42    24    25 1   
    43    25    56 1   
    44    26    27 ar  
    45    26    28 ar  
    46    26    57 1   
    47    27    31 ar  
    48    27    58 1   
    49    28    29 ar  
    50    28    59 1   
    51    29    30 ar  
    52    30    31 ar  
    53    30    60 1   
    54    31    38 1   
    55    32    33 ar  
    56    32    37 ar  
    57    32    70 1   
    58    33    34 ar  
    59    33    63 1   
    60    34    35 ar  
    61    34    65 1   
    62    35    36 ar  
    63    35    66 1   
    64    36    37 ar  
    65    36    40 1   
    66    37    64 1   
    67    39    40 1   
    68    39    61 1   
    69    39    62 1   
    70    39    69 1   
    71    40    67 1   
    72    40    68 1   
    73    54    69 1   
    74    55    69 1   
@<TRIPOS>SUBSTRUCTURE
     1 IZ5         1 TEMP              0 ****  ****    0 ROOT
