@<TRIPOS>MOLECULE
IZ6
   40    43     1     0     0
SMALL
No Charge or Current Charge


@<TRIPOS>ATOM
      1 N3          93.4290    -7.6760    14.4280 n2         1 IZ6      -0.338400
      2 C7          91.5260    -9.1490    14.1720 c          1 IZ6       0.479800
      3 C8          91.4850    -8.2690    17.3710 cc         1 IZ6      -0.191000
      4 C10         93.5850    -9.4910    12.7420 c6         1 IZ6       0.200800
      5 C13         95.2680    -7.5990    12.8570 ca         1 IZ6       0.308000
      6 C15         92.9470    -4.4160    15.7890 ca         1 IZ6      -0.098000
      7 C17         96.2870    -8.3450    12.2240 ca         1 IZ6      -0.134000
      8 C20         93.2040    -3.4290    14.8200 ca         1 IZ6      -0.107000
      9 C21         91.2530    -4.1580    13.5600 ca         1 IZ6      -0.107000
     10 C22         97.4420    -7.7120    11.7280 ca         1 IZ6      -0.088000
     11 C24         92.3580    -3.3020    13.7050 ca         1 IZ6      -0.113000
     12 C1          92.3320    -8.1420    14.9640 cf         1 IZ6       0.273900
     13 C2          91.8030    -7.6010    16.2230 cd         1 IZ6      -0.145900
     14 N4          91.6020    -6.2680    16.6020 na         1 IZ6       0.226000
     15 N5          94.0920    -8.2340    13.3620 nh         1 IZ6      -0.483500
     16 N6          91.1550    -6.0680    17.8970 nd         1 IZ6      -0.507800
     17 C9          92.0470    -9.4990    12.7740 c6         1 IZ6      -0.203400
     18 C11         91.0990    -7.3120    18.3280 cc         1 IZ6       0.235900
     19 C12         91.8440    -5.2800    15.6460 ca         1 IZ6       0.027800
     20 O14         90.5130    -9.6910    14.6040 o          1 IZ6      -0.490100
     21 C16         90.9940    -5.1430    14.5290 ca         1 IZ6      -0.098000
     22 C18         95.4410    -6.2020    12.9840 ca         1 IZ6      -0.134000
     23 C19         96.5930    -5.5670    12.4880 ca         1 IZ6      -0.088000
     24 C23         97.5940    -6.3230    11.8590 ca         1 IZ6      -0.126000
     25 H2          93.9140    -9.5750    11.6950 h1         1 IZ6       0.062700
     26 H3          93.9750   -10.3630    13.2880 h1         1 IZ6       0.062700
     27 H4          93.6070    -4.5150    16.6480 ha         1 IZ6       0.129500
     28 H5          96.2000    -9.4220    12.1250 ha         1 IZ6       0.127500
     29 H6          94.0590    -2.7660    14.9330 ha         1 IZ6       0.117500
     30 H7          90.5970    -4.0580    12.6980 ha         1 IZ6       0.117500
     31 H8          98.2200    -8.3010    11.2450 ha         1 IZ6       0.116000
     32 H9          92.5580    -2.5390    12.9550 ha         1 IZ6       0.115000
     33 H10         91.6040   -10.4330    12.4090 hc         1 IZ6       0.086200
     34 H11         91.7260    -8.6820    12.1160 hc         1 IZ6       0.086200
     35 H12         90.7820    -7.4980    19.3460 h4         1 IZ6       0.038100
     36 H13         90.1370    -5.8030    14.4120 ha         1 IZ6       0.129500
     37 H14         94.6720    -5.6010    13.4590 ha         1 IZ6       0.127500
     38 H15         96.7070    -4.4900    12.5910 ha         1 IZ6       0.116000
     39 H16         98.4870    -5.8340    11.4760 ha         1 IZ6       0.117000
     40 H1          91.5220    -9.3410    17.5420 ha         1 IZ6       0.155000
@<TRIPOS>BOND
     1     1    12 2   
     2     1    15 1   
     3     2    12 1   
     4     2    17 1   
     5     2    20 2   
     6     3    13 2   
     7     3    18 1   
     8     3    40 1   
     9     4    15 1   
    10     4    17 1   
    11     4    25 1   
    12     4    26 1   
    13     5     7 ar  
    14     5    15 1   
    15     5    22 ar  
    16     6     8 ar  
    17     6    19 ar  
    18     6    27 1   
    19     7    10 ar  
    20     7    28 1   
    21     8    11 ar  
    22     8    29 1   
    23     9    11 ar  
    24     9    21 ar  
    25     9    30 1   
    26    10    24 ar  
    27    10    31 1   
    28    11    32 1   
    29    12    13 1   
    30    13    14 1   
    31    14    16 1   
    32    14    19 1   
    33    16    18 2   
    34    17    33 1   
    35    17    34 1   
    36    18    35 1   
    37    19    21 ar  
    38    21    36 1   
    39    22    23 ar  
    40    22    37 1   
    41    23    24 ar  
    42    23    38 1   
    43    24    39 1   
@<TRIPOS>SUBSTRUCTURE
     1 IZ6         1 TEMP              0 ****  ****    0 ROOT
