@<TRIPOS>MOLECULE
IZ6
   40    43     1     0     0
SMALL
abcg2


@<TRIPOS>ATOM
      1 N3          93.3260    -7.7660    14.3710 n2         1 IZ6      -0.338400
      2 C7          91.5790    -9.4540    14.3170 c          1 IZ6       0.479800
      3 C8          91.2840    -8.2710    17.2900 cc         1 IZ6      -0.191000
      4 C10         93.5630    -9.5810    12.8300 c6         1 IZ6       0.200800
      5 C13         95.0260    -7.5480    12.8340 ca         1 IZ6       0.308000
      6 C15         93.0430    -4.3400    15.8960 ca         1 IZ6      -0.098000
      7 C17         96.0280    -8.2020    12.1190 ca         1 IZ6      -0.134000
      8 C20         93.3590    -3.2880    15.0470 ca         1 IZ6      -0.107000
      9 C21         91.8530    -4.1650    13.3920 ca         1 IZ6      -0.107000
     10 C22         97.1220    -7.4870    11.6500 ca         1 IZ6      -0.088000
     11 C24         92.7700    -3.2010    13.7920 ca         1 IZ6      -0.113000
     12 C1          92.2900    -8.3160    14.9200 cf         1 IZ6       0.273900
     13 C2          91.7750    -7.6930    16.1380 cd         1 IZ6      -0.145900
     14 N4          91.7900    -6.3510    16.3700 na         1 IZ6       0.226000
     15 N5          93.9060    -8.2520    13.3120 nh         1 IZ6      -0.483500
     16 N6          91.3580    -6.0440    17.5960 nd         1 IZ6      -0.507800
     17 C9          92.0680    -9.7990    12.9380 c6         1 IZ6      -0.203400
     18 C11         91.0520    -7.1950    18.1590 cc         1 IZ6       0.235900
     19 C12         92.1270    -5.2980    15.4870 ca         1 IZ6       0.027800
     20 O14         90.6350    -9.9980    14.8470 o          1 IZ6      -0.490100
     21 C16         91.5200    -5.2100    14.2410 ca         1 IZ6      -0.098000
     22 C18         95.1350    -6.1770    13.0730 ca         1 IZ6      -0.134000
     23 C19         96.2350    -5.4800    12.6060 ca         1 IZ6      -0.088000
     24 C23         97.2360    -6.1260    11.8890 ca         1 IZ6      -0.126000
     25 H2          93.8790    -9.6840    11.7950 h1         1 IZ6       0.062700
     26 H3          94.1050   -10.3260    13.4240 h1         1 IZ6       0.062700
     27 H4          93.5100    -4.4180    16.8690 ha         1 IZ6       0.129500
     28 H5          95.9830    -9.2670    11.9350 ha         1 IZ6       0.127500
     29 H6          94.0740    -2.5410    15.3650 ha         1 IZ6       0.117500
     30 H7          91.3830    -4.0980    12.4190 ha         1 IZ6       0.117500
     31 H8          97.8940    -8.0100    11.1010 ha         1 IZ6       0.116000
     32 H9          93.0230    -2.3850    13.1290 ha         1 IZ6       0.115000
     33 H10         91.8210   -10.8300    12.6870 hc         1 IZ6       0.086200
     34 H11         91.5380    -9.1520    12.2300 hc         1 IZ6       0.086200
     35 H12         90.6710    -7.2220    19.1680 h4         1 IZ6       0.038100
     36 H13         90.7930    -5.9510    13.9350 ha         1 IZ6       0.129500
     37 H14         94.3590    -5.6580    13.6170 ha         1 IZ6       0.127500
     38 H15         96.3030    -4.4170    12.7970 ha         1 IZ6       0.116000
     39 H16         98.0910    -5.5750    11.5220 ha         1 IZ6       0.117000
     40 H1          91.1520    -9.3200    17.4870 ha         1 IZ6       0.155000
@<TRIPOS>BOND
     1     1    12 2   
     2     1    15 1   
     3     2    12 1   
     4     2    17 1   
     5     2    20 2   
     6     3    13 2   
     7     3    18 1   
     8     3    40 1   
     9     4    15 1   
    10     4    17 1   
    11     4    25 1   
    12     4    26 1   
    13     5     7 ar  
    14     5    15 1   
    15     5    22 ar  
    16     6     8 ar  
    17     6    19 ar  
    18     6    27 1   
    19     7    10 ar  
    20     7    28 1   
    21     8    11 ar  
    22     8    29 1   
    23     9    11 ar  
    24     9    21 ar  
    25     9    30 1   
    26    10    24 ar  
    27    10    31 1   
    28    11    32 1   
    29    12    13 1   
    30    13    14 1   
    31    14    16 1   
    32    14    19 1   
    33    16    18 2   
    34    17    33 1   
    35    17    34 1   
    36    18    35 1   
    37    19    21 ar  
    38    21    36 1   
    39    22    23 ar  
    40    22    37 1   
    41    23    24 ar  
    42    23    38 1   
    43    24    39 1   
@<TRIPOS>SUBSTRUCTURE
     1 IZ6         1 TEMP              0 ****  ****    0 ROOT
