@<TRIPOS>MOLECULE
IZ7
   45    46     1     0     0
SMALL
abcg2


@<TRIPOS>ATOM
      1 C10          5.5570     7.2900    22.1890 ca         1 IZ7      -0.049300
      2 C13          4.2670     5.5530    23.5310 c3         1 IZ7      -0.030800
      3 C15          6.4270     7.5540    23.3860 c3         1 IZ7      -0.046800
      4 C16          8.0670     8.4120    20.5610 c3         1 IZ7       0.142900
      5 C17          7.0610     8.0480    16.8030 c2         1 IZ7      -0.093400
      6 C18          7.7100     7.0700    15.8510 c3         1 IZ7      -0.014200
      7 C19          7.6780     9.4190    16.7730 c3         1 IZ7      -0.056900
      8 C20          7.2090     5.6300    15.8810 c3         1 IZ7      -0.205400
      9 C21          5.7770     5.3880    15.3600 c          1 IZ7       0.701000
     10 C23          2.6070     6.7280    17.6660 c3         1 IZ7      -0.129400
     11 C1           3.9610     6.8760    19.9450 ca         1 IZ7      -0.227900
     12 C2           4.9930     7.8220    19.8410 ca         1 IZ7       0.014700
     13 C3           3.7690     6.1740    21.1330 ca         1 IZ7       0.088100
     14 C4           2.9300     6.3650    19.0750 cc         1 IZ7       0.425900
     15 C5           5.7740     7.9970    20.9800 ca         1 IZ7       0.050100
     16 C6           5.2800     8.5670    18.5620 c3         1 IZ7       0.004100
     17 C7           4.5340     6.3410    22.2810 ca         1 IZ7      -0.100300
     18 O8           2.7230     5.3170    20.9960 os         1 IZ7      -0.157100
     19 N9           2.2140     5.4600    19.6830 nd         1 IZ7      -0.309700
     20 O11          6.7880     8.9370    20.9430 os         1 IZ7      -0.376100
     21 C12          6.0370     7.7020    17.5850 c2         1 IZ7      -0.237200
     22 O22          5.1380     4.4410    15.8940 o          1 IZ7      -0.742000
     23 O23          5.3620     6.1150    14.4220 o          1 IZ7      -0.742000
     24 H1           5.1620     5.0160    23.8550 hc         1 IZ7       0.040367
     25 H2           3.9710     6.2080    24.3550 hc         1 IZ7       0.040367
     26 H3           3.4720     4.8260    23.3740 hc         1 IZ7       0.040367
     27 H4           5.8190     7.6980    24.2820 hc         1 IZ7       0.042367
     28 H5           7.0870     6.7040    23.5840 hc         1 IZ7       0.042367
     29 H6           7.0430     8.4370    23.2400 hc         1 IZ7       0.042367
     30 H7           8.7630     9.2480    20.5760 h1         1 IZ7       0.037367
     31 H8           8.3990     7.6460    21.2670 h1         1 IZ7       0.037367
     32 H9           8.0220     7.9860    19.5570 h1         1 IZ7       0.037367
     33 H10          7.6020     7.4640    14.8350 hc         1 IZ7       0.027700
     34 H11          8.7890     7.0760    16.0520 hc         1 IZ7       0.027700
     35 H12          8.7410     9.3620    17.0290 hc         1 IZ7       0.026700
     36 H13          7.6220     9.8390    15.7640 hc         1 IZ7       0.026700
     37 H14          7.2010    10.1190    17.4560 hc         1 IZ7       0.026700
     38 H15          7.8670     5.0280    15.2450 hc         1 IZ7       0.023700
     39 H16          7.2900     5.2130    16.8870 hc         1 IZ7       0.023700
     40 H17          1.7610     6.1390    17.3150 hc         1 IZ7       0.074033
     41 H18          2.3540     7.7860    17.5920 hc         1 IZ7       0.074033
     42 H19          3.4600     6.5400    17.0130 hc         1 IZ7       0.074033
     43 H20          4.3310     8.8750    18.1140 hc         1 IZ7       0.054700
     44 H21          5.8280     9.4760    18.7960 hc         1 IZ7       0.054700
     45 H22          5.6780     6.6820    17.5300 ha         1 IZ7       0.213000
@<TRIPOS>BOND
     1     1     3 1   
     2     1    15 ar  
     3     1    17 ar  
     4     2    17 1   
     5     2    24 1   
     6     2    25 1   
     7     2    26 1   
     8     3    27 1   
     9     3    28 1   
    10     3    29 1   
    11     4    20 1   
    12     4    30 1   
    13     4    31 1   
    14     4    32 1   
    15     5     6 1   
    16     5     7 1   
    17     5    21 2   
    18     6     8 1   
    19     6    33 1   
    20     6    34 1   
    21     7    35 1   
    22     7    36 1   
    23     7    37 1   
    24     8     9 1   
    25     8    38 1   
    26     8    39 1   
    27     9    22 1   
    28     9    23 1   
    29    10    14 1   
    30    10    40 1   
    31    10    41 1   
    32    10    42 1   
    33    11    12 ar  
    34    11    13 ar  
    35    11    14 1   
    36    12    15 ar  
    37    12    16 1   
    38    13    17 ar  
    39    13    18 1   
    40    14    19 2   
    41    15    20 1   
    42    16    21 1   
    43    16    43 1   
    44    16    44 1   
    45    18    19 1   
    46    21    45 1   
@<TRIPOS>SUBSTRUCTURE
     1 IZ7         1 TEMP              0 ****  ****    0 ROOT
