@<TRIPOS>MOLECULE
IZ7
   45    46     1     0     0
SMALL
No Charge or Current Charge


@<TRIPOS>ATOM
      1 C10          5.5680     7.0820    22.3670 ca         1 IZ7      -0.049300
      2 C13          3.8940     5.4260    23.4210 c3         1 IZ7      -0.030800
      3 C15          6.3590     7.1100    23.6800 c3         1 IZ7      -0.046800
      4 C16          8.4200     7.9530    21.0440 c3         1 IZ7       0.142900
      5 C17          6.6760     8.1480    16.4920 c2         1 IZ7      -0.093400
      6 C18          7.3990     7.2530    15.4820 c3         1 IZ7      -0.014200
      7 C19          6.2450     9.4600    15.8500 c3         1 IZ7      -0.056900
      8 C20          7.5970     5.7540    15.8420 c3         1 IZ7      -0.205400
      9 C21          6.2580     4.9910    15.8570 c          1 IZ7       0.701000
     10 C23          3.0500     7.3550    17.5610 c3         1 IZ7      -0.129400
     11 C1           4.1060     7.0550    19.9740 ca         1 IZ7      -0.227900
     12 C2           5.2690     7.8540    20.0260 ca         1 IZ7       0.014700
     13 C3           3.7010     6.3100    21.0420 ca         1 IZ7       0.088100
     14 C4           3.1270     6.7850    18.9490 cc         1 IZ7       0.425900
     15 C5           6.0040     7.8450    21.2440 ca         1 IZ7       0.050100
     16 C6           5.7420     8.6820    18.8270 c3         1 IZ7       0.004100
     17 C7           4.3960     6.2870    22.2610 ca         1 IZ7      -0.100300
     18 O8           2.5560     5.6110    20.7580 os         1 IZ7      -0.157100
     19 N9           2.1970     5.9350    19.3910 nd         1 IZ7      -0.309700
     20 O11          7.1620     8.5850    21.3390 os         1 IZ7      -0.376100
     21 C12          6.4630     7.8390    17.7880 c2         1 IZ7      -0.237200
     22 O22          5.6960     4.8170    16.9270 o          1 IZ7      -0.742000
     23 O23          5.8170     4.5860    14.7920 o          1 IZ7      -0.742000
     24 H1           4.7030     4.8190    23.8450 hc         1 IZ7       0.040367
     25 H2           3.4840     6.0510    24.2230 hc         1 IZ7       0.040367
     26 H3           3.1050     4.7320    23.1110 hc         1 IZ7       0.040367
     27 H4           5.6950     7.1470    24.5510 hc         1 IZ7       0.042367
     28 H5           6.9870     6.2170    23.7750 hc         1 IZ7       0.042367
     29 H6           7.0130     7.9850    23.7590 hc         1 IZ7       0.042367
     30 H7           9.2440     8.6660    21.1710 h1         1 IZ7       0.037367
     31 H8           8.5940     7.1020    21.7140 h1         1 IZ7       0.037367
     32 H9           8.4380     7.5880    20.0090 h1         1 IZ7       0.037367
     33 H10          6.8650     7.2860    14.5230 hc         1 IZ7       0.027700
     34 H11          8.3870     7.6850    15.2800 hc         1 IZ7       0.027700
     35 H12          7.0980     9.9600    15.3740 hc         1 IZ7       0.026700
     36 H13          5.4880     9.2870    15.0760 hc         1 IZ7       0.026700
     37 H14          5.8230    10.1720    16.5670 hc         1 IZ7       0.026700
     38 H15          8.2190     5.3670    15.0250 hc         1 IZ7       0.023700
     39 H16          8.1000     5.7090    16.8140 hc         1 IZ7       0.023700
     40 H17          2.2180     6.9120    17.0010 hc         1 IZ7       0.074033
     41 H18          2.8870     8.4370    17.5910 hc         1 IZ7       0.074033
     42 H19          3.9650     7.1490    16.9990 hc         1 IZ7       0.074033
     43 H20          4.8890     9.2080    18.3880 hc         1 IZ7       0.054700
     44 H21          6.4110     9.4860    19.1560 hc         1 IZ7       0.054700
     45 H22          6.8090     6.8870    18.1900 ha         1 IZ7       0.213000
@<TRIPOS>BOND
     1     1     3 1   
     2     1    15 ar  
     3     1    17 ar  
     4     2    17 1   
     5     2    24 1   
     6     2    25 1   
     7     2    26 1   
     8     3    27 1   
     9     3    28 1   
    10     3    29 1   
    11     4    20 1   
    12     4    30 1   
    13     4    31 1   
    14     4    32 1   
    15     5     6 1   
    16     5     7 1   
    17     5    21 2   
    18     6     8 1   
    19     6    33 1   
    20     6    34 1   
    21     7    35 1   
    22     7    36 1   
    23     7    37 1   
    24     8     9 1   
    25     8    38 1   
    26     8    39 1   
    27     9    22 1   
    28     9    23 1   
    29    10    14 1   
    30    10    40 1   
    31    10    41 1   
    32    10    42 1   
    33    11    12 ar  
    34    11    13 ar  
    35    11    14 1   
    36    12    15 ar  
    37    12    16 1   
    38    13    17 ar  
    39    13    18 1   
    40    14    19 2   
    41    15    20 1   
    42    16    21 1   
    43    16    43 1   
    44    16    44 1   
    45    18    19 1   
    46    21    45 1   
@<TRIPOS>SUBSTRUCTURE
     1 IZ7         1 TEMP              0 ****  ****    0 ROOT
