@<TRIPOS>MOLECULE
IZ9
   36    38     1     0     0
SMALL
No Charge or Current Charge


@<TRIPOS>ATOM
      1 NAB          1.1760    -3.6460     0.0310 n1         1 IZ9      -0.480000
      2 CAE          1.3140    -2.4870     0.0390 cg         1 IZ9       0.320700
      3 CAS          1.5240    -1.0750     0.0340 cc         1 IZ9      -0.003900
      4 C5           2.7780    -0.3660     0.0360 ca         1 IZ9      -0.277800
      5 C6           4.1090    -0.7990     0.0460 ca         1 IZ9       0.475900
      6 NAD          4.4790    -2.1020     0.0550 nv         1 IZ9      -1.068900
      7 N1           5.1170     0.0790     0.0460 nb         1 IZ9      -0.356000
      8 C2           4.7530     1.3700     0.0390 ca         1 IZ9       0.439900
      9 NAC          5.7640     2.2640     0.0350 nv         1 IZ9      -1.058900
     10 N3           3.5110     1.8810     0.0280 nb         1 IZ9      -0.308000
     11 C4           2.5150     0.9770     0.0270 ca         1 IZ9       0.203500
     12 NAN          1.1490     1.1720     0.0200 na         1 IZ9      -0.314400
     13 CAT          0.5280    -0.0990     0.0240 cd         1 IZ9       0.010900
     14 CAG         -0.9200    -0.3290     0.0180 cf         1 IZ9      -0.167000
     15 CAF         -1.9020     0.6180     0.0080 ce         1 IZ9      -0.133200
     16 CAQ         -3.3860     0.4450     0.0010 ca         1 IZ9      -0.067800
     17 CAJ         -4.2120     1.5860     0.0110 ca         1 IZ9      -0.089500
     18 CAH         -5.6120     1.4580     0.0060 ca         1 IZ9      -0.113000
     19 CAO         -6.2090     0.1850    -0.0080 ca         1 IZ9      -0.063300
     20 CAA         -7.7230     0.0460    -0.0180 c3         1 IZ9      -0.049800
     21 CAI         -5.3890    -0.9580    -0.0220 ca         1 IZ9      -0.113000
     22 CAK         -3.9890    -0.8310    -0.0160 ca         1 IZ9      -0.089500
     23 HAD1         3.7900    -2.8050    -0.1930 hn         1 IZ9       0.501500
     24 HAD2         5.4500    -2.3220    -0.1520 hn         1 IZ9       0.501500
     25 HAC1         6.6950     1.9270    -0.1960 hn         1 IZ9       0.494000
     26 HAC2         5.5530     3.2270    -0.2110 hn         1 IZ9       0.494000
     27 HAN          0.6820     2.0700     0.0120 hn         1 IZ9       0.364000
     28 HAG         -1.2190    -1.3770     0.0230 ha         1 IZ9       0.197000
     29 HAF         -1.5890     1.6620     0.0040 ha         1 IZ9       0.164000
     30 HAJ         -3.7700     2.5800     0.0230 ha         1 IZ9       0.112500
     31 HAK         -3.3850    -1.7340    -0.0270 ha         1 IZ9       0.112500
     32 HAH         -6.2320     2.3520     0.0120 ha         1 IZ9       0.113500
     33 HAA1        -8.1060     0.0230    -1.0450 hc         1 IZ9       0.044367
     34 HAA2        -8.0430    -0.8770     0.4800 hc         1 IZ9       0.044367
     35 HAA3        -8.2050     0.8830     0.5010 hc         1 IZ9       0.044367
     36 HAI         -5.8370    -1.9490    -0.0370 ha         1 IZ9       0.113500
@<TRIPOS>BOND
     1     1     2 3   
     2     2     3 1   
     3     3     4 1   
     4     3    13 2   
     5     4     5 ar  
     6     4    11 ar  
     7     5     6 1   
     8     5     7 ar  
     9     6    23 1   
    10     6    24 1   
    11     7     8 ar  
    12     8     9 1   
    13     8    10 ar  
    14     9    25 1   
    15     9    26 1   
    16    10    11 ar  
    17    11    12 1   
    18    12    13 1   
    19    12    27 1   
    20    13    14 1   
    21    14    15 2   
    22    14    28 1   
    23    15    16 1   
    24    15    29 1   
    25    16    17 ar  
    26    16    22 ar  
    27    17    18 ar  
    28    17    30 1   
    29    18    19 ar  
    30    18    32 1   
    31    19    20 1   
    32    19    21 ar  
    33    20    33 1   
    34    20    34 1   
    35    20    35 1   
    36    21    22 ar  
    37    21    36 1   
    38    22    31 1   
@<TRIPOS>SUBSTRUCTURE
     1 IZ9         1 TEMP              0 ****  ****    0 ROOT
