@<TRIPOS>MOLECULE
IZ9
   36    38     1     0     0
SMALL
abcg2


@<TRIPOS>ATOM
      1 NAB          1.0570    -3.6820    -0.0250 n1         1 IZ9      -0.480000
      2 CAE          1.2300    -2.5390    -0.0220 cg         1 IZ9       0.320700
      3 CAS          1.4660    -1.1530    -0.0160 cc         1 IZ9      -0.003900
      4 C5           2.7300    -0.4830    -0.0070 ca         1 IZ9      -0.277800
      5 C6           4.1000    -0.8200    -0.0040 ca         1 IZ9       0.475900
      6 NAD          4.5310    -2.0870     0.0000 nv         1 IZ9      -1.068900
      7 N1           5.0080     0.1490     0.0140 nb         1 IZ9      -0.356000
      8 C2           4.6010     1.4270     0.0300 ca         1 IZ9       0.439900
      9 NAC          5.5760     2.3590     0.0920 nv         1 IZ9      -1.058900
     10 N3           3.3420     1.8680     0.0190 nb         1 IZ9      -0.308000
     11 C4           2.4550     0.8830     0.0020 ca         1 IZ9       0.203500
     12 NAN          1.1030     1.0380    -0.0040 na         1 IZ9      -0.314400
     13 CAT          0.4790    -0.1790    -0.0140 cd         1 IZ9       0.010900
     14 CAG         -0.9440    -0.3740    -0.0160 cf         1 IZ9      -0.167000
     15 CAF         -1.8600     0.6080    -0.0140 ce         1 IZ9      -0.133200
     16 CAQ         -3.3060     0.4380    -0.0100 ca         1 IZ9      -0.067800
     17 CAJ         -4.1170     1.5750     0.0040 ca         1 IZ9      -0.089500
     18 CAH         -5.5000     1.4710     0.0160 ca         1 IZ9      -0.113000
     19 CAO         -6.1250     0.2280     0.0130 ca         1 IZ9      -0.063300
     20 CAA         -7.6200     0.1040     0.0080 c3         1 IZ9      -0.049800
     21 CAI         -5.3150    -0.9110    -0.0010 ca         1 IZ9      -0.113000
     22 CAK         -3.9380    -0.8130    -0.0130 ca         1 IZ9      -0.089500
     23 HAD1         3.9070    -2.8620    -0.1410 hn         1 IZ9       0.501500
     24 HAD2         5.5160    -2.2710    -0.0810 hn         1 IZ9       0.501500
     25 HAC1         6.5220     2.0790    -0.0990 hn         1 IZ9       0.494000
     26 HAC2         5.3380     3.3180    -0.0920 hn         1 IZ9       0.494000
     27 HAN          0.6410     1.9340     0.0050 hn         1 IZ9       0.364000
     28 HAG         -1.2560    -1.4120    -0.0160 ha         1 IZ9       0.197000
     29 HAF         -1.5320     1.6430    -0.0140 ha         1 IZ9       0.164000
     30 HAJ         -3.6590     2.5570     0.0090 ha         1 IZ9       0.112500
     31 HAK         -3.3510    -1.7240    -0.0220 ha         1 IZ9       0.112500
     32 HAH         -6.1010     2.3720     0.0320 ha         1 IZ9       0.113500
     33 HAA1        -7.9840    -0.1960    -0.9770 hc         1 IZ9       0.044367
     34 HAA2        -7.9590    -0.6500     0.7180 hc         1 IZ9       0.044367
     35 HAA3        -8.1000     1.0480     0.2620 hc         1 IZ9       0.044367
     36 HAI         -5.7750    -1.8920    -0.0010 ha         1 IZ9       0.113500
@<TRIPOS>BOND
     1     1     2 3   
     2     2     3 1   
     3     3     4 1   
     4     3    13 2   
     5     4     5 ar  
     6     4    11 ar  
     7     5     6 1   
     8     5     7 ar  
     9     6    23 1   
    10     6    24 1   
    11     7     8 ar  
    12     8     9 1   
    13     8    10 ar  
    14     9    25 1   
    15     9    26 1   
    16    10    11 ar  
    17    11    12 1   
    18    12    13 1   
    19    12    27 1   
    20    13    14 1   
    21    14    15 2   
    22    14    28 1   
    23    15    16 1   
    24    15    29 1   
    25    16    17 ar  
    26    16    22 ar  
    27    17    18 ar  
    28    17    30 1   
    29    18    19 ar  
    30    18    32 1   
    31    19    20 1   
    32    19    21 ar  
    33    20    33 1   
    34    20    34 1   
    35    20    35 1   
    36    21    22 ar  
    37    21    36 1   
    38    22    31 1   
@<TRIPOS>SUBSTRUCTURE
     1 IZ9         1 TEMP              0 ****  ****    0 ROOT
