@<TRIPOS>MOLECULE
IZA
   39    42     1     0     0
SMALL
abcg2


@<TRIPOS>ATOM
      1 O0          -3.8210     1.6810     0.0870 o          1 IZA      -0.560000
      2 C11         -2.6320     1.9870     0.0730 c          1 IZA       0.568600
      3 N2          -2.3090     3.3260     0.0950 ns         1 IZA      -0.371100
      4 C12         -1.0620     3.8460     0.0790 cc         1 IZA      -0.025400
      5 C13          0.0110     3.0310     0.0410 cd         1 IZA      -0.283200
      6 C9          -0.2040     1.6250     0.0200 ca         1 IZA       0.065200
      7 C1           0.8810     0.7240    -0.0100 ca         1 IZA      -0.129200
      8 C10         -1.4960     1.0690     0.0340 ca         1 IZA      -0.153600
      9 C8          -1.6850    -0.3710     0.0120 ca         1 IZA       0.024000
     10 C7          -2.9570    -0.9880     0.0200 ca         1 IZA      -0.145000
     11 C6          -3.0590    -2.3510    -0.0000 ca         1 IZA       0.172000
     12 F1          -4.2870    -2.9010     0.0090 f          1 IZA      -0.181000
     13 C5          -1.9600    -3.2040    -0.0300 ca         1 IZA      -0.151000
     14 C4          -0.7140    -2.6300    -0.0400 ca         1 IZA      -0.059000
     15 C3          -0.5550    -1.2360    -0.0200 ca         1 IZA      -0.024000
     16 C0           0.7380    -0.6450    -0.0290 ca         1 IZA       0.117400
     17 N1           1.9570    -1.2540    -0.0520 nc         1 IZA      -0.576100
     18 C2           2.8360    -0.2800    -0.0460 cd         1 IZA       0.414800
     19 N0           2.2340     0.9350    -0.0230 na         1 IZA      -0.281600
     20 C14          4.3300    -0.4340    -0.0100 c3         1 IZA      -0.059300
     21 C17          4.8250    -0.0170     1.3830 c3         1 IZA      -0.084100
     22 C16          4.9780     0.4570    -1.0750 c3         1 IZA      -0.084100
     23 C15          4.7050    -1.8910    -0.2730 c3         1 IZA      -0.084100
     24 HN2         -3.0950     3.9610     0.1220 hn         1 IZA       0.330500
     25 H12         -0.9940     4.9230     0.0980 h4         1 IZA       0.201000
     26 H13          1.0050     3.4510     0.0290 ha         1 IZA       0.191000
     27 H7          -3.8530    -0.3910     0.0440 ha         1 IZA       0.166000
     28 H5          -2.0890    -4.2780    -0.0450 ha         1 IZA       0.133000
     29 H4           0.1690    -3.2560    -0.0630 ha         1 IZA       0.135000
     30 HN0          2.7050     1.8270    -0.0170 hn         1 IZA       0.357000
     31 H171         4.6090     1.0320     1.5920 hc         1 IZA       0.041922
     32 H172         4.3600    -0.6190     2.1660 hc         1 IZA       0.041922
     33 H173         5.9050    -0.1510     1.4510 hc         1 IZA       0.041922
     34 H161         6.0620     0.3360    -1.0440 hc         1 IZA       0.041922
     35 H162         4.6380     0.1920    -2.0770 hc         1 IZA       0.041922
     36 H163         4.7710     1.5180    -0.9190 hc         1 IZA       0.041922
     37 H151         4.2780    -2.5600     0.4740 hc         1 IZA       0.041922
     38 H152         4.3660    -2.2230    -1.2550 hc         1 IZA       0.041922
     39 H153         5.7900    -1.9970    -0.2400 hc         1 IZA       0.041922
@<TRIPOS>BOND
     1     1     2 2   
     2     2     3 1   
     3     2     8 1   
     4     3     4 1   
     5     3    24 1   
     6     4     5 2   
     7     4    25 1   
     8     5     6 1   
     9     5    26 1   
    10     6     7 ar  
    11     6     8 ar  
    12     7    16 ar  
    13     7    19 1   
    14     8     9 ar  
    15     9    10 ar  
    16     9    15 ar  
    17    10    11 ar  
    18    10    27 1   
    19    11    12 1   
    20    11    13 ar  
    21    13    14 ar  
    22    13    28 1   
    23    14    15 ar  
    24    14    29 1   
    25    15    16 ar  
    26    16    17 1   
    27    17    18 2   
    28    18    19 1   
    29    18    20 1   
    30    19    30 1   
    31    20    21 1   
    32    20    22 1   
    33    20    23 1   
    34    21    31 1   
    35    21    32 1   
    36    21    33 1   
    37    22    34 1   
    38    22    35 1   
    39    22    36 1   
    40    23    37 1   
    41    23    38 1   
    42    23    39 1   
@<TRIPOS>SUBSTRUCTURE
     1 IZA         1 TEMP              0 ****  ****    0 ROOT
