@<TRIPOS>MOLECULE
IZA
   39    42     1     0     0
SMALL
No Charge or Current Charge


@<TRIPOS>ATOM
      1 O0          -3.8750     1.8010     0.0840 o          1 IZA      -0.560000
      2 C11         -2.6870     2.0750     0.1020 c          1 IZA       0.568600
      3 N2          -2.3350     3.4040     0.1710 ns         1 IZA      -0.371100
      4 C12         -1.0510     3.9160     0.2020 cc         1 IZA      -0.025400
      5 C13         -0.0060     3.0330     0.1610 cd         1 IZA      -0.283200
      6 C9          -0.2270     1.5850     0.0870 ca         1 IZA       0.065200
      7 C1           0.8640     0.7070     0.0470 ca         1 IZA      -0.129200
      8 C10         -1.5460     1.0560     0.0550 ca         1 IZA      -0.153600
      9 C8          -1.7150    -0.3770    -0.0180 ca         1 IZA       0.024000
     10 C7          -2.9830    -1.0200    -0.0560 ca         1 IZA      -0.145000
     11 C6          -3.0920    -2.4160    -0.1270 ca         1 IZA       0.172000
     12 F1          -4.3150    -2.9890    -0.1610 f          1 IZA      -0.181000
     13 C5          -1.9530    -3.2230    -0.1630 ca         1 IZA      -0.151000
     14 C4          -0.6880    -2.6250    -0.1280 ca         1 IZA      -0.059000
     15 C3          -0.5630    -1.2210    -0.0560 ca         1 IZA      -0.024000
     16 C0           0.7160    -0.6420    -0.0220 ca         1 IZA       0.117400
     17 N1           1.9470    -1.2840    -0.0500 nc         1 IZA      -0.576100
     18 C2           2.8220    -0.2600     0.0050 cd         1 IZA       0.414800
     19 N0           2.2050     0.9960     0.0670 na         1 IZA      -0.281600
     20 C14          4.3420    -0.4460     0.0020 c3         1 IZA      -0.059300
     21 C17          4.9370     0.1560     1.3030 c3         1 IZA      -0.084100
     22 C16          4.9470     0.2860    -1.2260 c3         1 IZA      -0.084100
     23 C15          4.7440    -1.9490    -0.0730 c3         1 IZA      -0.084100
     24 HN2         -3.1220     4.0420     0.2000 hn         1 IZA       0.330500
     25 H12         -0.9930     5.0010     0.2570 h4         1 IZA       0.201000
     26 H13          1.0030     3.4330     0.1850 ha         1 IZA       0.191000
     27 H7          -3.9170    -0.4790    -0.0320 ha         1 IZA       0.166000
     28 H5          -2.0510    -4.3040    -0.2180 ha         1 IZA       0.133000
     29 H4           0.1980    -3.2570    -0.1570 ha         1 IZA       0.135000
     30 HN0          2.6630     1.8950     0.1140 hn         1 IZA       0.357000
     31 H171         4.7290     1.2310     1.3760 hc         1 IZA       0.041922
     32 H172         4.5090    -0.3310     2.1880 hc         1 IZA       0.041922
     33 H173         6.0260     0.0240     1.3360 hc         1 IZA       0.041922
     34 H161         6.0360     0.1570    -1.2640 hc         1 IZA       0.041922
     35 H162         4.5270    -0.1090    -2.1590 hc         1 IZA       0.041922
     36 H163         4.7390     1.3620    -1.1910 hc         1 IZA       0.041922
     37 H151         4.3510    -2.5060     0.7860 hc         1 IZA       0.041922
     38 H152         4.3580    -2.4150    -0.9880 hc         1 IZA       0.041922
     39 H153         5.8350    -2.0640    -0.0750 hc         1 IZA       0.041922
@<TRIPOS>BOND
     1     1     2 2   
     2     2     3 1   
     3     2     8 1   
     4     3     4 1   
     5     3    24 1   
     6     4     5 2   
     7     4    25 1   
     8     5     6 1   
     9     5    26 1   
    10     6     7 ar  
    11     6     8 ar  
    12     7    16 ar  
    13     7    19 1   
    14     8     9 ar  
    15     9    10 ar  
    16     9    15 ar  
    17    10    11 ar  
    18    10    27 1   
    19    11    12 1   
    20    11    13 ar  
    21    13    14 ar  
    22    13    28 1   
    23    14    15 ar  
    24    14    29 1   
    25    15    16 ar  
    26    16    17 1   
    27    17    18 2   
    28    18    19 1   
    29    18    20 1   
    30    19    30 1   
    31    20    21 1   
    32    20    22 1   
    33    20    23 1   
    34    21    31 1   
    35    21    32 1   
    36    21    33 1   
    37    22    34 1   
    38    22    35 1   
    39    22    36 1   
    40    23    37 1   
    41    23    38 1   
    42    23    39 1   
@<TRIPOS>SUBSTRUCTURE
     1 IZA         1 TEMP              0 ****  ****    0 ROOT
