@<TRIPOS>MOLECULE
IZB
   67    72     1     0     0
SMALL
abcg2


@<TRIPOS>ATOM
      1 C1          -6.1800     0.6990    -0.7650 c5         1 IZB      -0.202400
      2 C2          -6.8020     1.2210     0.5280 c5         1 IZB      -0.162400
      3 C3          -7.4920     0.0780     1.2420 c          1 IZB       0.576000
      4 N4          -7.7220    -0.9470     0.3610 ns         1 IZB      -0.580300
      5 S5          -7.3570    -0.6050    -1.2430 s6         1 IZB       1.177800
      6 O6          -8.5060    -0.0110    -1.9010 o          1 IZB      -0.511000
      7 O7          -6.7360    -1.7670    -1.8440 o          1 IZB      -0.511000
      8 O9          -7.8050     0.0580     2.4060 o          1 IZB      -0.487000
      9 C11         -4.7970     0.1300    -0.6540 ca         1 IZB      -0.080300
     10 C12         -3.9830     0.1170    -1.7820 ca         1 IZB      -0.085000
     11 C13         -2.6990    -0.4010    -1.7220 ca         1 IZB      -0.090500
     12 C14         -2.1980    -0.9250    -0.5350 ca         1 IZB      -0.060300
     13 C15         -3.0180    -0.9180     0.5890 ca         1 IZB      -0.090500
     14 C16         -4.3020    -0.3990     0.5340 ca         1 IZB      -0.085000
     15 C21         -0.7950    -1.4510    -0.4400 c3         1 IZB      -0.028100
     16 C22          0.1460    -0.4350     0.2290 c3         1 IZB       0.213200
     17 N45          0.2030     0.7550    -0.5980 n7         1 IZB      -0.892300
     18 S1           0.8040     2.1850    -0.0240 sy         1 IZB       1.177600
     19 O1           0.5880     3.1410    -1.0970 o          1 IZB      -0.533500
     20 O2           0.1880     2.3900     1.2780 o          1 IZB      -0.533500
     21 C17          5.6330    -2.7410     0.6740 ca         1 IZB      -0.093000
     22 C19          4.7950    -2.1380    -0.2470 ca         1 IZB      -0.113000
     23 C23          3.5250    -1.7940     0.1980 ca         1 IZB      -0.071200
     24 C4           3.0910    -2.0360     1.5120 ca         1 IZB       0.066400
     25 C5           3.9490    -2.6480     2.4240 ca         1 IZB      -0.045000
     26 C6           5.2170    -2.9940     1.9900 ca         1 IZB      -0.142000
     27 N11          2.4620    -1.1850    -0.4110 na         1 IZB      -0.304600
     28 C25          1.4820    -1.0580     0.5200 cc         1 IZB       0.365800
     29 N13          1.8100    -1.5630     1.6760 nd         1 IZB      -0.559100
     30 C18          6.6880     1.1310    -1.8320 c6         1 IZB       0.142600
     31 O3           5.5070     1.9170    -1.8490 os         1 IZB      -0.335100
     32 C24          4.7120     1.7680    -0.7620 ca         1 IZB       0.022100
     33 C26          5.2350     1.3070     0.4730 ca         1 IZB       0.339000
     34 N5           6.5460     0.9680     0.5670 nh         1 IZB      -0.819400
     35 C27          7.4270     1.3070    -0.5250 c6         1 IZB       0.190800
     36 C7           3.3770     2.0760    -0.8940 ca         1 IZB      -0.020000
     37 C8           2.5270     1.9710     0.2070 ca         1 IZB      -0.360500
     38 C9           3.0150     1.5470     1.4330 ca         1 IZB       0.027000
     39 C10          4.3530     1.2250     1.5600 ca         1 IZB      -0.187000
     40 H1          -6.2280     1.4420    -1.5630 h1         1 IZB       0.116700
     41 H2C1        -6.0620     1.6880     1.1750 hc         1 IZB       0.102700
     42 H2C2        -7.5590     1.9790     0.3090 hc         1 IZB       0.102700
     43 H4          -8.2570    -1.7730     0.6110 hn         1 IZB       0.356500
     44 H12         -4.3490     0.5230    -2.7170 ha         1 IZB       0.116500
     45 H13         -2.0810    -0.3960    -2.6120 ha         1 IZB       0.117000
     46 H15         -2.6530    -1.3230     1.5250 ha         1 IZB       0.117000
     47 H16         -4.8970    -0.4090     1.4380 ha         1 IZB       0.116500
     48 H211        -0.4110    -1.7060    -1.4320 hc         1 IZB       0.060200
     49 H212        -0.7740    -2.3660     0.1540 hc         1 IZB       0.060200
     50 H22         -0.2840    -0.1600     1.1940 h1         1 IZB       0.120700
     51 H45          0.3680     0.6180    -1.5880 hn         1 IZB       0.480000
     52 H17          6.6350    -3.0200     0.3750 ha         1 IZB       0.111000
     53 H19          5.1190    -1.9420    -1.2610 ha         1 IZB       0.116000
     54 H5           3.6320    -2.8420     3.4410 ha         1 IZB       0.131000
     55 H6           5.9050    -3.4680     2.6770 ha         1 IZB       0.115000
     56 H11          2.4410    -0.8410    -1.3570 hn         1 IZB       0.355000
     57 H181         7.3000     1.4630    -2.6690 h1         1 IZB       0.061200
     58 H182         6.4400     0.0750    -1.9820 h1         1 IZB       0.061200
     59 H271         7.8100     2.3310    -0.4390 h1         1 IZB       0.057200
     60 H272         8.2860     0.6350    -0.5160 h1         1 IZB       0.057200
     61 H7           3.0110     2.4020    -1.8600 ha         1 IZB       0.140000
     62 H9           2.3660     1.4620     2.2920 ha         1 IZB       0.145000
     63 H10          4.7120     0.8970     2.5250 ha         1 IZB       0.124000
     64 H201         7.0940     1.2640     2.5930 h1         1 IZB       0.044033
     65 H202         6.5500    -0.3710     2.1750 h1         1 IZB       0.044033
     66 H203         8.1300     0.1930     1.6470 h1         1 IZB       0.044033
     67 C20          7.0990     0.4990     1.8110 c3         1 IZB       0.214100
@<TRIPOS>BOND
     1     1     2 1   
     2     1     5 1   
     3     1     9 1   
     4     1    40 1   
     5     2     3 1   
     6     2    41 1   
     7     2    42 1   
     8     3     4 1   
     9     3     8 2   
    10     4     5 1   
    11     4    43 1   
    12     5     6 2   
    13     5     7 2   
    14     9    10 ar  
    15     9    14 ar  
    16    10    11 ar  
    17    10    44 1   
    18    11    12 ar  
    19    11    45 1   
    20    12    13 ar  
    21    12    15 1   
    22    13    14 ar  
    23    13    46 1   
    24    14    47 1   
    25    15    16 1   
    26    15    48 1   
    27    15    49 1   
    28    16    17 1   
    29    16    28 1   
    30    16    50 1   
    31    17    18 1   
    32    17    51 1   
    33    18    19 2   
    34    18    20 2   
    35    18    37 1   
    36    21    22 ar  
    37    21    26 ar  
    38    21    52 1   
    39    22    23 ar  
    40    22    53 1   
    41    23    24 ar  
    42    23    27 1   
    43    24    25 ar  
    44    24    29 1   
    45    25    26 ar  
    46    25    54 1   
    47    26    55 1   
    48    27    28 1   
    49    27    56 1   
    50    28    29 2   
    51    30    31 1   
    52    30    35 1   
    53    30    57 1   
    54    30    58 1   
    55    31    32 1   
    56    32    33 ar  
    57    32    36 ar  
    58    33    34 1   
    59    33    39 ar  
    60    34    35 1   
    61    34    67 1   
    62    35    59 1   
    63    35    60 1   
    64    36    37 ar  
    65    36    61 1   
    66    37    38 ar  
    67    38    39 ar  
    68    38    62 1   
    69    39    63 1   
    70    64    67 1   
    71    65    67 1   
    72    66    67 1   
@<TRIPOS>SUBSTRUCTURE
     1 IZB         1 TEMP              0 ****  ****    0 ROOT
