@<TRIPOS>MOLECULE
IZB
   67    72     1     0     0
SMALL
No Charge or Current Charge


@<TRIPOS>ATOM
      1 C1          -6.3570     0.5360    -1.1350 c5         1 IZB      -0.202400
      2 C2          -6.8200     1.3020     0.1700 c5         1 IZB      -0.162400
      3 C3          -7.5350     0.3050     1.1290 c          1 IZB       0.576000
      4 N4          -8.0720    -0.6880     0.3780 ns         1 IZB      -0.580300
      5 S5          -7.6250    -0.8200    -1.2070 s6         1 IZB       1.177800
      6 O6          -8.7790    -0.4110    -2.0150 o          1 IZB      -0.511000
      7 O7          -7.0250    -2.1460    -1.3900 o          1 IZB      -0.511000
      8 O9          -7.4440     0.2280     2.3410 o          1 IZB      -0.487000
      9 C11         -4.9140     0.0360    -0.9480 ca         1 IZB      -0.080300
     10 C12         -3.9580     0.3470    -1.9360 ca         1 IZB      -0.085000
     11 C13         -2.6260    -0.0820    -1.8130 ca         1 IZB      -0.090500
     12 C14         -2.2210    -0.8330    -0.6960 ca         1 IZB      -0.060300
     13 C15         -3.1670    -1.1500     0.2950 ca         1 IZB      -0.090500
     14 C16         -4.5000    -0.7210     0.1710 ca         1 IZB      -0.085000
     15 C21         -0.7750    -1.3030    -0.5570 c3         1 IZB      -0.028100
     16 C22          0.0730    -0.3980     0.3690 c3         1 IZB       0.213200
     17 N45          0.2090     0.9540    -0.2580 n7         1 IZB      -0.892300
     18 S1           0.8070     2.2200     0.6540 sy         1 IZB       1.177600
     19 O1           0.4730     3.4210    -0.1120 o          1 IZB      -0.533500
     20 O2           0.3240     2.0150     2.0220 o          1 IZB      -0.533500
     21 C17          5.6070    -2.8090     0.9750 ca         1 IZB      -0.093000
     22 C19          4.7200    -2.2720     0.0190 ca         1 IZB      -0.113000
     23 C23          3.4560    -1.8730     0.4660 ca         1 IZB      -0.071200
     24 C4           3.0600    -1.9740     1.7680 ca         1 IZB       0.066400
     25 C5           3.9240    -2.5040     2.7370 ca         1 IZB      -0.045000
     26 C6           5.2100    -2.9250     2.3290 ca         1 IZB      -0.142000
     27 N11          2.4210    -1.3180    -0.2170 na         1 IZB      -0.304600
     28 C25          1.4080    -1.0620     0.7130 cc         1 IZB       0.365800
     29 N13          1.7690    -1.4820     1.9450 nd         1 IZB      -0.559100
     30 C18          6.5080     1.2010    -2.1650 c6         1 IZB       0.142600
     31 O3           5.2580     1.9000    -1.9620 os         1 IZB      -0.335100
     32 C24          4.6270     1.7530    -0.7380 ca         1 IZB       0.022100
     33 C26          5.3360     1.3020     0.4110 ca         1 IZB       0.339000
     34 N5           6.7340     1.0300     0.3280 nh         1 IZB      -0.819400
     35 C27          7.4510     1.3470    -0.9420 c6         1 IZB       0.190800
     36 C7           3.2600     2.0670    -0.6540 ca         1 IZB      -0.020000
     37 C8           2.5680     1.8970     0.5620 ca         1 IZB      -0.360500
     38 C9           3.2650     1.4550     1.7040 ca         1 IZB       0.027000
     39 C10          4.6360     1.1660     1.6270 ca         1 IZB      -0.187000
     40 H1          -6.4750     1.1290    -2.0490 h1         1 IZB       0.116700
     41 H2C1        -6.0360     1.8620     0.6900 hc         1 IZB       0.102700
     42 H2C2        -7.5950     2.0140    -0.1380 hc         1 IZB       0.102700
     43 H4          -8.3280    -1.5610     0.8060 hn         1 IZB       0.356500
     44 H12         -4.2470     0.9300    -2.8070 ha         1 IZB       0.116500
     45 H13         -1.9060     0.1760    -2.5860 ha         1 IZB       0.117000
     46 H15         -2.8720    -1.7320     1.1650 ha         1 IZB       0.117000
     47 H16         -5.2020    -0.9900     0.9540 ha         1 IZB       0.116500
     48 H211        -0.2970    -1.3700    -1.5420 hc         1 IZB       0.060200
     49 H212        -0.7670    -2.3230    -0.1530 hc         1 IZB       0.060200
     50 H22         -0.4860    -0.3190     1.3140 h1         1 IZB       0.120700
     51 H45          0.8940     0.9100    -1.0070 hn         1 IZB       0.480000
     52 H17          6.6010    -3.1300     0.6700 ha         1 IZB       0.111000
     53 H19          5.0110    -2.1690    -1.0240 ha         1 IZB       0.116000
     54 H5           3.6120    -2.5830     3.7750 ha         1 IZB       0.131000
     55 H6           5.9010    -3.3370     3.0620 ha         1 IZB       0.115000
     56 H11          2.3860    -1.1290    -1.2100 hn         1 IZB       0.355000
     57 H181         6.9950     1.5800    -3.0740 h1         1 IZB       0.061200
     58 H182         6.2860     0.1360    -2.3170 h1         1 IZB       0.061200
     59 H271         7.8370     2.3760    -0.9080 h1         1 IZB       0.057200
     60 H272         8.3120     0.6770    -1.0850 h1         1 IZB       0.057200
     61 H7           2.7430     2.4220    -1.5440 ha         1 IZB       0.140000
     62 H9           2.7490     1.3210     2.6540 ha         1 IZB       0.145000
     63 H10          5.1440     0.8270     2.5230 ha         1 IZB       0.124000
     64 H201         7.5610     1.1730     2.2870 h1         1 IZB       0.044033
     65 H202         7.0610    -0.4730     1.8050 h1         1 IZB       0.044033
     66 H203         8.5460     0.2370     1.1430 h1         1 IZB       0.044033
     67 C20          7.5160     0.4620     1.4520 c3         1 IZB       0.214100
@<TRIPOS>BOND
     1     1     2 1   
     2     1     5 1   
     3     1     9 1   
     4     1    40 1   
     5     2     3 1   
     6     2    41 1   
     7     2    42 1   
     8     3     4 1   
     9     3     8 2   
    10     4     5 1   
    11     4    43 1   
    12     5     6 2   
    13     5     7 2   
    14     9    10 ar  
    15     9    14 ar  
    16    10    11 ar  
    17    10    44 1   
    18    11    12 ar  
    19    11    45 1   
    20    12    13 ar  
    21    12    15 1   
    22    13    14 ar  
    23    13    46 1   
    24    14    47 1   
    25    15    16 1   
    26    15    48 1   
    27    15    49 1   
    28    16    17 1   
    29    16    28 1   
    30    16    50 1   
    31    17    18 1   
    32    17    51 1   
    33    18    19 2   
    34    18    20 2   
    35    18    37 1   
    36    21    22 ar  
    37    21    26 ar  
    38    21    52 1   
    39    22    23 ar  
    40    22    53 1   
    41    23    24 ar  
    42    23    27 1   
    43    24    25 ar  
    44    24    29 1   
    45    25    26 ar  
    46    25    54 1   
    47    26    55 1   
    48    27    28 1   
    49    27    56 1   
    50    28    29 2   
    51    30    31 1   
    52    30    35 1   
    53    30    57 1   
    54    30    58 1   
    55    31    32 1   
    56    32    33 ar  
    57    32    36 ar  
    58    33    34 1   
    59    33    39 ar  
    60    34    35 1   
    61    34    67 1   
    62    35    59 1   
    63    35    60 1   
    64    36    37 ar  
    65    36    61 1   
    66    37    38 ar  
    67    38    39 ar  
    68    38    62 1   
    69    39    63 1   
    70    64    67 1   
    71    65    67 1   
    72    66    67 1   
@<TRIPOS>SUBSTRUCTURE
     1 IZB         1 TEMP              0 ****  ****    0 ROOT
