@<TRIPOS>MOLECULE
IZC
   14    14     1     0     0
SMALL
abcg2


@<TRIPOS>ATOM
      1 O1           3.1470    -0.7080    -0.0290 o          1 IZC      -0.721000
      2 O2           1.9910     1.1940    -0.0980 o          1 IZC      -0.721000
      3 N1          -2.8150    -0.4000     0.0260 n2         1 IZC      -0.604900
      4 N3          -0.8870     0.9480     0.0230 n2         1 IZC      -0.514900
      5 C2          -2.3240     0.9550     0.0380 c5         1 IZC       0.191000
      6 C4          -0.5420    -0.2820     0.0040 ce         1 IZC       0.335000
      7 C5          -1.7650    -1.1190     0.0060 ce         1 IZC       0.281900
      8 C6           0.8110    -0.9010    -0.0110 c3         1 IZC      -0.246700
      9 C7           2.0920    -0.0400    -0.0480 c          1 IZC       0.728000
     10 H5          -1.7920    -2.2040    -0.0070 h4         1 IZC       0.027800
     11 H61          0.8410    -1.5950    -0.8590 hc         1 IZC       0.035200
     12 H62          0.8700    -1.5610     0.8630 hc         1 IZC       0.035200
     13 H21         -2.6950     1.4800     0.9250 h2         1 IZC       0.086700
     14 H22         -2.7140     1.5020    -0.8260 h2         1 IZC       0.086700
@<TRIPOS>BOND
     1     1     9 1   
     2     2     9 1   
     3     3     5 1   
     4     3     7 2   
     5     4     5 1   
     6     4     6 2   
     7     5    13 1   
     8     5    14 1   
     9     6     7 1   
    10     6     8 1   
    11     7    10 1   
    12     8     9 1   
    13     8    11 1   
    14     8    12 1   
@<TRIPOS>SUBSTRUCTURE
     1 IZC         1 TEMP              0 ****  ****    0 ROOT
