@<TRIPOS>MOLECULE
IZC
   14    14     1     0     0
SMALL
No Charge or Current Charge


@<TRIPOS>ATOM
      1 O1           1.9360    -1.2580     1.2070 o          1 IZC      -0.721000
      2 O2           2.4370     0.5810     0.2040 o          1 IZC      -0.721000
      3 N1          -2.4410    -0.2620     0.9360 n2         1 IZC      -0.604900
      4 N3          -1.1410     0.8110    -0.7980 n2         1 IZC      -0.514900
      5 C2          -2.3880     0.9140     0.0160 c5         1 IZC       0.191000
      6 C4          -0.5210    -0.2040    -0.2970 ce         1 IZC       0.335000
      7 C5          -1.3240    -0.8730     0.7130 ce         1 IZC       0.281900
      8 C6           0.7870    -0.7770    -0.7850 c3         1 IZC      -0.246700
      9 C7           1.8400    -0.4820     0.2700 c          1 IZC       0.728000
     10 H5          -1.0020    -1.7930     1.2050 h4         1 IZC       0.027800
     11 H61          1.0350    -0.2870    -1.7340 hc         1 IZC       0.035200
     12 H62          0.6410    -1.8590    -0.8810 hc         1 IZC       0.035200
     13 H21         -2.3760     1.8470     0.5980 h2         1 IZC       0.086700
     14 H22         -3.2650     0.9110    -0.6480 h2         1 IZC       0.086700
@<TRIPOS>BOND
     1     1     9 1   
     2     2     9 1   
     3     3     5 1   
     4     3     7 2   
     5     4     5 1   
     6     4     6 2   
     7     5    13 1   
     8     5    14 1   
     9     6     7 1   
    10     6     8 1   
    11     7    10 1   
    12     8     9 1   
    13     8    11 1   
    14     8    12 1   
@<TRIPOS>SUBSTRUCTURE
     1 IZC         1 TEMP              0 ****  ****    0 ROOT
