@<TRIPOS>MOLECULE
IZD
   60    62     1     0     0
SMALL
No Charge or Current Charge


@<TRIPOS>ATOM
      1 C1          -3.9700     2.1440    -3.6160 c5         1 IZD      -0.206400
      2 C2          -5.1520     2.6790    -4.5250 c5         1 IZD      -0.158400
      3 C3          -5.9670     1.4460    -5.0090 c          1 IZD       0.574000
      4 N4          -5.9570     0.5350    -4.0060 ns         1 IZD      -0.590300
      5 S5          -4.8780     0.7510    -2.7750 s6         1 IZD       1.188800
      6 O6          -4.0590    -0.4620    -2.6820 o          1 IZD      -0.512000
      7 O7          -5.6360     1.2300    -1.6160 o          1 IZD      -0.512000
      8 O9          -6.3350     1.1740    -6.1380 o          1 IZD      -0.485000
      9 C11         -3.4420     3.2280    -2.6500 ca         1 IZD      -0.087300
     10 C12         -2.7190     2.8460    -1.4980 ca         1 IZD      -0.087000
     11 C13         -2.2320     3.8070    -0.5950 ca         1 IZD      -0.092500
     12 C14         -2.4370     5.1760    -0.8360 ca         1 IZD      -0.067300
     13 C15         -3.1140     5.5700    -2.0030 ca         1 IZD      -0.092500
     14 C16         -3.6090     4.6100    -2.9010 ca         1 IZD      -0.087000
     15 C21         -1.9580     6.2190     0.1700 c3         1 IZD      -0.049100
     16 C22         -2.9850     6.4900     1.3060 c3         1 IZD       0.029700
     17 C25         -2.5590     7.6850     2.2110 c          1 IZD       0.593100
     18 O26         -3.2310     8.6930     2.3670 o          1 IZD      -0.605100
     19 N27         -1.3650     7.5760     2.8390 nt         1 IZD      -0.600000
     20 N45         -4.3470     6.7000     0.7570 ns         1 IZD      -0.495900
     21 C47         -5.2910     5.7070     0.5890 c          1 IZD       0.589100
     22 C48         -6.5430     6.1260    -0.2300 c3         1 IZD       0.034700
     23 O49         -5.1370     4.5810     1.0470 o          1 IZD      -0.593100
     24 N51         -7.2610     4.9290    -0.7310 ns         1 IZD      -0.485900
     25 C4          -7.4860     7.0290     0.6060 c3         1 IZD      -0.040100
     26 C5          -8.7340     7.4620    -0.1570 ca         1 IZD      -0.082300
     27 C30         -8.6630     8.5160    -1.0890 ca         1 IZD      -0.101500
     28 C31         -9.8100     8.9130    -1.7990 ca         1 IZD      -0.108500
     29 C6         -11.0340     8.2580    -1.5820 ca         1 IZD      -0.107000
     30 C33        -11.1110     7.2060    -0.6530 ca         1 IZD      -0.108500
     31 C34         -9.9650     6.8100     0.0580 ca         1 IZD      -0.101500
     32 C67         -7.7630     4.7830    -2.0030 c          1 IZD       0.611100
     33 O70         -7.5940     5.6160    -2.8810 o          1 IZD      -0.629100
     34 C71         -8.5390     3.4940    -2.2400 c3         1 IZD      -0.168100
     35 H1          -3.1720     1.6730    -4.2030 h1         1 IZD       0.112700
     36 H2C1        -4.8370     3.2910    -5.3770 hc         1 IZD       0.099700
     37 H2C2        -5.8350     3.2580    -3.8930 hc         1 IZD       0.099700
     38 H4          -6.1600    -0.4300    -4.2050 hn         1 IZD       0.356500
     39 H12         -2.5340     1.7960    -1.2870 ha         1 IZD       0.120000
     40 H13         -1.7030     3.4830     0.2980 ha         1 IZD       0.122500
     41 H15         -3.2710     6.6260    -2.2110 ha         1 IZD       0.122500
     42 H16         -4.1210     4.9610    -3.7920 ha         1 IZD       0.120000
     43 H211        -1.0030     5.9030     0.6070 hc         1 IZD       0.062700
     44 H212        -1.7520     7.1630    -0.3510 hc         1 IZD       0.062700
     45 H22         -3.0060     5.6090     1.9600 h1         1 IZD       0.089700
     46 H271        -1.0510     8.3300     3.4320 hn         1 IZD       0.318500
     47 H272        -0.8010     6.7470     2.7230 hn         1 IZD       0.318500
     48 H45         -4.5760     7.6190     0.3950 hn         1 IZD       0.335500
     49 H48         -6.1750     6.7030    -1.0880 h1         1 IZD       0.090700
     50 H51         -7.4050     4.1540    -0.0930 hn         1 IZD       0.336500
     51 H4C1        -6.9350     7.9160     0.9390 hc         1 IZD       0.062700
     52 H4C2        -7.7710     6.4930     1.5210 hc         1 IZD       0.062700
     53 H30         -7.7190     9.0250    -1.2670 ha         1 IZD       0.110000
     54 H31         -9.7480     9.7260    -2.5190 ha         1 IZD       0.112000
     55 H6         -11.9210     8.5650    -2.1320 ha         1 IZD       0.112000
     56 H33        -12.0570     6.6980    -0.4840 ha         1 IZD       0.112000
     57 H34        -10.0330     5.9930     0.7730 ha         1 IZD       0.110000
     58 H711        -8.8620     3.3810    -3.2810 hc         1 IZD       0.059033
     59 H712        -7.9420     2.6410    -1.9010 hc         1 IZD       0.059033
     60 H713        -9.3920     3.4680    -1.5530 hc         1 IZD       0.059033
@<TRIPOS>BOND
     1     1     2 1   
     2     1     5 1   
     3     1     9 1   
     4     1    35 1   
     5     2     3 1   
     6     2    36 1   
     7     2    37 1   
     8     3     4 1   
     9     3     8 2   
    10     4     5 1   
    11     4    38 1   
    12     5     6 2   
    13     5     7 2   
    14     9    10 ar  
    15     9    14 ar  
    16    10    11 ar  
    17    10    39 1   
    18    11    12 ar  
    19    11    40 1   
    20    12    13 ar  
    21    12    15 1   
    22    13    14 ar  
    23    13    41 1   
    24    14    42 1   
    25    15    16 1   
    26    15    43 1   
    27    15    44 1   
    28    16    17 1   
    29    16    20 1   
    30    16    45 1   
    31    17    18 2   
    32    17    19 1   
    33    19    46 1   
    34    19    47 1   
    35    20    21 1   
    36    20    48 1   
    37    21    22 1   
    38    21    23 2   
    39    22    24 1   
    40    22    25 1   
    41    22    49 1   
    42    24    32 1   
    43    24    50 1   
    44    25    26 1   
    45    25    51 1   
    46    25    52 1   
    47    26    27 ar  
    48    26    31 ar  
    49    27    28 ar  
    50    27    53 1   
    51    28    29 ar  
    52    28    54 1   
    53    29    30 ar  
    54    29    55 1   
    55    30    31 ar  
    56    30    56 1   
    57    31    57 1   
    58    32    33 2   
    59    32    34 1   
    60    34    58 1   
    61    34    59 1   
    62    34    60 1   
@<TRIPOS>SUBSTRUCTURE
     1 IZD         1 TEMP              0 ****  ****    0 ROOT
