@<TRIPOS>MOLECULE
IZD
   60    62     1     0     0
SMALL
abcg2


@<TRIPOS>ATOM
      1 C1          -3.8970     1.6960    -3.2170 c5         1 IZD      -0.206400
      2 C2          -4.5260     1.8160    -4.6000 c5         1 IZD      -0.158400
      3 C3          -5.4590     0.6410    -4.7980 c          1 IZD       0.574000
      4 N4          -5.8140     0.1150    -3.5830 ns         1 IZD      -0.590300
      5 S5          -5.2270     0.9400    -2.2410 s6         1 IZD       1.188800
      6 O6          -4.7440    -0.0160    -1.2640 o          1 IZD      -0.512000
      7 O7          -6.1800     1.9450    -1.8140 o          1 IZD      -0.512000
      8 O9          -5.8560     0.2260    -5.8580 o          1 IZD      -0.485000
      9 C11         -3.3980     2.9270    -2.5270 ca         1 IZD      -0.087300
     10 C12         -2.4590     2.7810    -1.5080 ca         1 IZD      -0.087000
     11 C13         -2.0150     3.8820    -0.7960 ca         1 IZD      -0.092500
     12 C14         -2.4850     5.1580    -1.0910 ca         1 IZD      -0.067300
     13 C15         -3.4010     5.3030    -2.1280 ca         1 IZD      -0.092500
     14 C16         -3.8630     4.2010    -2.8290 ca         1 IZD      -0.087000
     15 C21         -2.0730     6.3360    -0.2620 c3         1 IZD      -0.049100
     16 C22         -3.0650     6.5550     0.9020 c3         1 IZD       0.029700
     17 C25         -2.6090     7.7610     1.7190 c          1 IZD       0.593100
     18 O26         -2.9090     8.8960     1.3790 o          1 IZD      -0.605100
     19 N27         -1.8330     7.4730     2.7670 nt         1 IZD      -0.600000
     20 N45         -4.3940     6.7970     0.4090 ns         1 IZD      -0.495900
     21 C47         -5.3800     5.8830     0.4020 c          1 IZD       0.589100
     22 C48         -6.6780     6.3700    -0.2370 c3         1 IZD       0.034700
     23 O49         -5.2940     4.7720     0.8930 o          1 IZD      -0.593100
     24 N51         -7.1900     5.3860    -1.1530 ns         1 IZD      -0.485900
     25 C4          -7.7060     6.6680     0.8660 c3         1 IZD      -0.040100
     26 C5          -8.9540     7.2820     0.3000 ca         1 IZD      -0.082300
     27 C30         -9.0280     8.6570     0.0890 ca         1 IZD      -0.101500
     28 C31        -10.1620     9.2300    -0.4690 ca         1 IZD      -0.108500
     29 C6         -11.2420     8.4320    -0.8280 ca         1 IZD      -0.107000
     30 C33        -11.1780     7.0610    -0.6210 ca         1 IZD      -0.108500
     31 C34        -10.0420     6.4920    -0.0620 ca         1 IZD      -0.101500
     32 C67         -7.1660     5.5220    -2.4910 c          1 IZD       0.611100
     33 O70         -6.6540     6.4780    -3.0580 o          1 IZD      -0.629100
     34 C71         -7.8470     4.4200    -3.2640 c3         1 IZD      -0.168100
     35 H1          -3.1160     0.9310    -3.2460 h1         1 IZD       0.112700
     36 H2C1        -3.7640     1.8310    -5.3770 hc         1 IZD       0.099700
     37 H2C2        -5.1200     2.7260    -4.7050 hc         1 IZD       0.099700
     38 H4          -6.5040    -0.6230    -3.4880 hn         1 IZD       0.356500
     39 H12         -2.0700     1.7980    -1.2690 ha         1 IZD       0.120000
     40 H13         -1.2920     3.7460    -0.0010 ha         1 IZD       0.122500
     41 H15         -3.7750     6.2850    -2.3880 ha         1 IZD       0.122500
     42 H16         -4.5830     4.3620    -3.6210 ha         1 IZD       0.120000
     43 H211        -1.0730     6.1870     0.1490 hc         1 IZD       0.062700
     44 H212        -2.0440     7.2420    -0.8720 hc         1 IZD       0.062700
     45 H22         -3.0910     5.6590     1.5230 h1         1 IZD       0.089700
     46 H271        -1.4530     8.2090     3.3410 hn         1 IZD       0.318500
     47 H272        -1.6600     6.5260     3.0560 hn         1 IZD       0.318500
     48 H45         -4.5540     7.6880    -0.0360 hn         1 IZD       0.335500
     49 H48         -6.4980     7.2820    -0.8100 h1         1 IZD       0.090700
     50 H51         -7.5460     4.5300    -0.7590 hn         1 IZD       0.336500
     51 H4C1        -7.2490     7.3430     1.5930 hc         1 IZD       0.062700
     52 H4C2        -7.9410     5.7400     1.3950 hc         1 IZD       0.062700
     53 H30         -8.1910     9.2860     0.3680 ha         1 IZD       0.110000
     54 H31        -10.2050    10.3010    -0.6220 ha         1 IZD       0.112000
     55 H6         -12.1280     8.8770    -1.2610 ha         1 IZD       0.112000
     56 H33        -12.0160     6.4320    -0.8950 ha         1 IZD       0.112000
     57 H34        -10.0040     5.4210     0.1030 ha         1 IZD       0.110000
     58 H711        -8.6280     4.8600    -3.8840 hc         1 IZD       0.059033
     59 H712        -7.1340     3.9430    -3.9350 hc         1 IZD       0.059033
     60 H713        -8.2930     3.6510    -2.6390 hc         1 IZD       0.059033
@<TRIPOS>BOND
     1     1     2 1   
     2     1     5 1   
     3     1     9 1   
     4     1    35 1   
     5     2     3 1   
     6     2    36 1   
     7     2    37 1   
     8     3     4 1   
     9     3     8 2   
    10     4     5 1   
    11     4    38 1   
    12     5     6 2   
    13     5     7 2   
    14     9    10 ar  
    15     9    14 ar  
    16    10    11 ar  
    17    10    39 1   
    18    11    12 ar  
    19    11    40 1   
    20    12    13 ar  
    21    12    15 1   
    22    13    14 ar  
    23    13    41 1   
    24    14    42 1   
    25    15    16 1   
    26    15    43 1   
    27    15    44 1   
    28    16    17 1   
    29    16    20 1   
    30    16    45 1   
    31    17    18 2   
    32    17    19 1   
    33    19    46 1   
    34    19    47 1   
    35    20    21 1   
    36    20    48 1   
    37    21    22 1   
    38    21    23 2   
    39    22    24 1   
    40    22    25 1   
    41    22    49 1   
    42    24    32 1   
    43    24    50 1   
    44    25    26 1   
    45    25    51 1   
    46    25    52 1   
    47    26    27 ar  
    48    26    31 ar  
    49    27    28 ar  
    50    27    53 1   
    51    28    29 ar  
    52    28    54 1   
    53    29    30 ar  
    54    29    55 1   
    55    30    31 ar  
    56    30    56 1   
    57    31    57 1   
    58    32    33 2   
    59    32    34 1   
    60    34    58 1   
    61    34    59 1   
    62    34    60 1   
@<TRIPOS>SUBSTRUCTURE
     1 IZD         1 TEMP              0 ****  ****    0 ROOT
