@<TRIPOS>MOLECULE
IZE
   52    55     1     0     0
SMALL
abcg2


@<TRIPOS>ATOM
      1 C1          -5.7310     0.2530     0.1820 c5         1 IZE      -0.210400
      2 C2          -6.3400    -0.0660     1.5460 c5         1 IZE      -0.161400
      3 C3          -6.7730    -1.5160     1.5650 c          1 IZE       0.576000
      4 N4          -6.8990    -1.9780     0.2820 ns         1 IZE      -0.579300
      5 S5          -6.7050    -0.8200    -0.9190 s6         1 IZE       1.178800
      6 O6          -7.9770    -0.1860    -1.2160 o          1 IZE      -0.505500
      7 O7          -5.9470    -1.3990    -2.0100 o          1 IZE      -0.505500
      8 O9          -6.9870    -2.1780     2.5500 o          1 IZE      -0.487000
      9 C11         -4.2680    -0.0340     0.0220 ca         1 IZE      -0.080300
     10 C12         -3.5590     0.6430    -0.9650 ca         1 IZE      -0.087000
     11 C13         -2.2050     0.4140    -1.1460 ca         1 IZE      -0.101000
     12 C14         -1.5240    -0.5030    -0.3510 ca         1 IZE      -0.077300
     13 C15         -2.2390    -1.1860     0.6280 ca         1 IZE      -0.101000
     14 C16         -3.5940    -0.9580     0.8150 ca         1 IZE      -0.087000
     15 C21         -0.0440    -0.7050    -0.4980 c3         1 IZE      -0.043100
     16 C22          0.7230     0.1050     0.5570 c3         1 IZE       0.110400
     17 N45          0.3460     1.5070     0.5970 ns         1 IZE      -0.503900
     18 C17          6.5100    -1.0340    -0.1470 ca         1 IZE      -0.222300
     19 C19          5.2470    -1.4830    -0.5100 ca         1 IZE       0.013000
     20 C23          4.1500    -0.7750    -0.0410 ca         1 IZE       0.059400
     21 C4           4.3360     0.3550     0.7740 ca         1 IZE      -0.048200
     22 C5           5.5940     0.8100     1.1390 ca         1 IZE      -0.120000
     23 C6           6.6800     0.0960     0.6660 ca         1 IZE      -0.046000
     24 N11          2.8070    -0.9910    -0.2440 nc         1 IZE      -0.551100
     25 C25          2.2080    -0.0440     0.4150 cd         1 IZE       0.404800
     26 N13          3.0720     0.7930     1.0480 na         1 IZE      -0.304600
     27 F1           8.8570    -1.2290    -0.3230 f          1 IZE      -0.114667
     28 F3           7.7260    -3.0480    -0.1210 f          1 IZE      -0.114667
     29 F2           7.6770    -1.9580    -1.9690 f          1 IZE      -0.114667
     30 C7           0.5970     2.3430    -0.4160 c          1 IZE       0.539100
     31 C8           0.0190     3.7570    -0.2210 c3         1 IZE       0.218000
     32 O1           1.2290     2.0750    -1.4130 o          1 IZE      -0.509100
     33 F4           0.5540     4.3460     0.8510 f          1 IZE      -0.100667
     34 F6          -1.3040     3.7110    -0.0420 f          1 IZE      -0.100667
     35 F5           0.2690     4.5110    -1.2790 f          1 IZE      -0.100667
     36 H1          -5.9560     1.2730    -0.1310 h1         1 IZE       0.117700
     37 H2C1        -5.6430     0.1360     2.3570 hc         1 IZE       0.100200
     38 H2C2        -7.2260     0.5500     1.7200 hc         1 IZE       0.100200
     39 H4          -7.2580    -2.9020     0.0620 hn         1 IZE       0.359500
     40 H12         -4.0650     1.3670    -1.5920 ha         1 IZE       0.119000
     41 H13         -1.6750     0.9510    -1.9240 ha         1 IZE       0.122000
     42 H15         -1.7330    -1.9070     1.2600 ha         1 IZE       0.122000
     43 H16         -4.1020    -1.5050     1.5980 ha         1 IZE       0.119000
     44 H211         0.2870    -0.4290    -1.4990 hc         1 IZE       0.088700
     45 H212         0.2130    -1.7560    -0.3580 hc         1 IZE       0.088700
     46 H22          0.4550    -0.2860     1.5420 h1         1 IZE       0.072700
     47 H45         -0.2320     1.8000     1.3690 hn         1 IZE       0.338500
     48 H19          5.1060    -2.3540    -1.1380 ha         1 IZE       0.146000
     49 H5           5.7310     1.6830     1.7630 ha         1 IZE       0.127000
     50 H6           7.6720     0.4300     0.9350 ha         1 IZE       0.133000
     51 HA           2.8260     1.5860     1.6200 hn         1 IZE       0.362000
     52 C28          7.6920    -1.8070    -0.6350 c3         1 IZE       0.359300
@<TRIPOS>BOND
     1     1     2 1   
     2     1     5 1   
     3     1     9 1   
     4     1    36 1   
     5     2     3 1   
     6     2    37 1   
     7     2    38 1   
     8     3     4 1   
     9     3     8 2   
    10     4     5 1   
    11     4    39 1   
    12     5     6 2   
    13     5     7 2   
    14     9    10 ar  
    15     9    14 ar  
    16    10    11 ar  
    17    10    40 1   
    18    11    12 ar  
    19    11    41 1   
    20    12    13 ar  
    21    12    15 1   
    22    13    14 ar  
    23    13    42 1   
    24    14    43 1   
    25    15    16 1   
    26    15    44 1   
    27    15    45 1   
    28    16    17 1   
    29    16    25 1   
    30    16    46 1   
    31    17    30 1   
    32    17    47 1   
    33    18    19 ar  
    34    18    23 ar  
    35    18    52 1   
    36    19    20 ar  
    37    19    48 1   
    38    20    21 ar  
    39    20    24 1   
    40    21    22 ar  
    41    21    26 1   
    42    22    23 ar  
    43    22    49 1   
    44    23    50 1   
    45    24    25 2   
    46    25    26 1   
    47    26    51 1   
    48    27    52 1   
    49    28    52 1   
    50    29    52 1   
    51    30    31 1   
    52    30    32 2   
    53    31    33 1   
    54    31    34 1   
    55    31    35 1   
@<TRIPOS>SUBSTRUCTURE
     1 IZE         1 TEMP              0 ****  ****    0 ROOT
