@<TRIPOS>MOLECULE
IZE
   52    55     1     0     0
SMALL
No Charge or Current Charge


@<TRIPOS>ATOM
      1 C1          -5.8240     0.1860    -0.3800 c5         1 IZE      -0.210400
      2 C2          -6.2390     0.5500     1.1030 c5         1 IZE      -0.161400
      3 C3          -6.6710    -0.7440     1.8520 c          1 IZE       0.576000
      4 N4          -7.1390    -1.6240     0.9320 ns         1 IZE      -0.579300
      5 S5          -6.8730    -1.3210    -0.6700 s6         1 IZE       1.178800
      6 O6          -8.1650    -0.9500    -1.2580 o          1 IZE      -0.505500
      7 O7          -6.1060    -2.4460    -1.2150 o          1 IZE      -0.505500
      8 O9          -6.4220    -1.0720     2.9980 o          1 IZE      -0.487000
      9 C11         -4.3110    -0.0820    -0.4340 ca         1 IZE      -0.080300
     10 C12         -3.5350     0.6200    -1.3770 ca         1 IZE      -0.087000
     11 C13         -2.1470     0.4200    -1.4630 ca         1 IZE      -0.101000
     12 C14         -1.5050    -0.4890    -0.6030 ca         1 IZE      -0.077300
     13 C15         -2.2720    -1.1970     0.3390 ca         1 IZE      -0.101000
     14 C16         -3.6600    -0.9970     0.4240 ca         1 IZE      -0.087000
     15 C21          0.0070    -0.6890    -0.6750 c3         1 IZE      -0.043100
     16 C22          0.7580    -0.0930     0.5480 c3         1 IZE       0.110400
     17 N45          0.2660     1.2660     0.8680 ns         1 IZE      -0.503900
     18 C17          6.6660    -1.0390    -0.2180 ca         1 IZE      -0.222300
     19 C19          5.3730    -1.5140    -0.5580 ca         1 IZE       0.013000
     20 C23          4.2470    -0.8410    -0.0570 ca         1 IZE       0.059400
     21 C4           4.3910     0.2490     0.7500 ca         1 IZE      -0.048200
     22 C5           5.6430     0.7500     1.1220 ca         1 IZE      -0.120000
     23 C6           6.7900     0.0940     0.6310 ca         1 IZE      -0.046000
     24 N11          2.9120    -1.1420    -0.2700 nc         1 IZE      -0.551100
     25 C25          2.2800    -0.1760     0.4320 cd         1 IZE       0.404800
     26 N13          3.1510     0.7020     1.0970 na         1 IZE      -0.304600
     27 F1           8.9580    -0.9150    -0.9090 f          1 IZE      -0.114667
     28 F3           8.3180    -2.7220     0.1160 f          1 IZE      -0.114667
     29 F2           7.7010    -2.3540    -1.9360 f          1 IZE      -0.114667
     30 C7           0.3670     2.3710     0.0350 c          1 IZE       0.539100
     31 C8          -0.3690     3.6440     0.5360 c3         1 IZE       0.218000
     32 O1           0.9990     2.3280    -1.0130 o          1 IZE      -0.509100
     33 F4           0.1020     4.0430     1.7410 f          1 IZE      -0.100667
     34 F6          -1.6980     3.4200     0.6740 f          1 IZE      -0.100667
     35 F5          -0.2250     4.6860    -0.3180 f          1 IZE      -0.100667
     36 H1          -6.1400     0.9370    -1.1140 h1         1 IZE       0.117700
     37 H2C1        -5.4910     1.1110     1.6750 hc         1 IZE       0.100200
     38 H2C2        -7.1440     1.1650     1.0380 hc         1 IZE       0.100200
     39 H4          -7.2050    -2.6010     1.1580 hn         1 IZE       0.359500
     40 H12         -4.0090     1.3330    -2.0490 ha         1 IZE       0.119000
     41 H13         -1.5710     0.9810    -2.1960 ha         1 IZE       0.122000
     42 H15         -1.7910    -1.9050     1.0110 ha         1 IZE       0.122000
     43 H16         -4.2180    -1.5650     1.1620 ha         1 IZE       0.119000
     44 H211         0.4050    -0.2420    -1.5940 hc         1 IZE       0.088700
     45 H212         0.2310    -1.7610    -0.7460 hc         1 IZE       0.088700
     46 H22          0.4940    -0.7200     1.4100 h1         1 IZE       0.072700
     47 H45         -0.2850     1.3870     1.7120 hn         1 IZE       0.338500
     48 H19          5.2390    -2.3860    -1.1940 ha         1 IZE       0.146000
     49 H5           5.7310     1.6180     1.7720 ha         1 IZE       0.127000
     50 H6           7.7730     0.4650     0.9150 ha         1 IZE       0.133000
     51 HA           2.8990     1.4790     1.6920 hn         1 IZE       0.362000
     52 C28          7.9130    -1.7580    -0.7400 c3         1 IZE       0.359300
@<TRIPOS>BOND
     1     1     2 1   
     2     1     5 1   
     3     1     9 1   
     4     1    36 1   
     5     2     3 1   
     6     2    37 1   
     7     2    38 1   
     8     3     4 1   
     9     3     8 2   
    10     4     5 1   
    11     4    39 1   
    12     5     6 2   
    13     5     7 2   
    14     9    10 ar  
    15     9    14 ar  
    16    10    11 ar  
    17    10    40 1   
    18    11    12 ar  
    19    11    41 1   
    20    12    13 ar  
    21    12    15 1   
    22    13    14 ar  
    23    13    42 1   
    24    14    43 1   
    25    15    16 1   
    26    15    44 1   
    27    15    45 1   
    28    16    17 1   
    29    16    25 1   
    30    16    46 1   
    31    17    30 1   
    32    17    47 1   
    33    18    19 ar  
    34    18    23 ar  
    35    18    52 1   
    36    19    20 ar  
    37    19    48 1   
    38    20    21 ar  
    39    20    24 1   
    40    21    22 ar  
    41    21    26 1   
    42    22    23 ar  
    43    22    49 1   
    44    23    50 1   
    45    24    25 2   
    46    25    26 1   
    47    26    51 1   
    48    27    52 1   
    49    28    52 1   
    50    29    52 1   
    51    30    31 1   
    52    30    32 2   
    53    31    33 1   
    54    31    34 1   
    55    31    35 1   
@<TRIPOS>SUBSTRUCTURE
     1 IZE         1 TEMP              0 ****  ****    0 ROOT
