@<TRIPOS>MOLECULE
IZF
   81    84     1     0     0
SMALL
No Charge or Current Charge


@<TRIPOS>ATOM
      1 C1          -7.3200     2.1310     0.3270 c5         1 IZF      -0.210400
      2 C2          -8.7220     1.3960     0.2320 c5         1 IZF      -0.161400
      3 C3          -8.7860     0.5990    -1.1070 c          1 IZF       0.578000
      4 N4          -8.0120     1.2490    -2.0120 ns         1 IZF      -0.581300
      5 S5          -6.9940     2.4380    -1.4770 s6         1 IZF       1.182800
      6 O6          -7.5680     3.7210    -1.8980 o          1 IZF      -0.499000
      7 O7          -5.6320     2.0670    -1.8740 o          1 IZF      -0.499000
      8 O9          -9.2080    -0.5280    -1.2990 o          1 IZF      -0.491000
      9 C11         -6.2230     1.2370     0.9560 ca         1 IZF      -0.072300
     10 C12         -6.3340    -0.1750     1.0460 ca         1 IZF      -0.083000
     11 C13         -5.2930    -0.9520     1.5820 ca         1 IZF      -0.084000
     12 C14         -4.1130    -0.3450     2.0440 ca         1 IZF      -0.052300
     13 C15         -3.9940     1.0540     1.9740 ca         1 IZF      -0.091000
     14 C16         -5.0290     1.8350     1.4360 ca         1 IZF       0.144000
     15 C21         -2.9470    -1.1890     2.5570 c3         1 IZF      -0.021100
     16 C22         -1.7910    -1.2310     1.5280 c3         1 IZF       0.132500
     17 N45         -2.2520    -1.9510     0.2970 n7         1 IZF      -0.849300
     18 S1          -1.3530    -1.8370    -1.1060 sy         1 IZF       1.145600
     19 O1          -2.2900    -2.1560    -2.1850 o          1 IZF      -0.523000
     20 O2          -0.1230    -2.5970    -0.8770 o          1 IZF      -0.523000
     21 C23          1.9470    -1.2990     2.6240 c3         1 IZF       0.098000
     22 C25         -0.4810    -1.8260     2.1430 c          1 IZF       0.562100
     23 C24          0.5750     1.7830    -1.0390 ca         1 IZF      -0.129500
     24 C26         -0.4880     2.6960    -1.1550 ca         1 IZF      -0.059000
     25 C7           0.3220     0.4000    -1.0370 ca         1 IZF      -0.013500
     26 C8          -1.0030    -0.0730    -1.1530 ca         1 IZF      -0.311500
     27 C9          -2.0680     0.8450    -1.2740 ca         1 IZF      -0.013500
     28 C10         -1.8070     2.2260    -1.2730 ca         1 IZF      -0.129500
     29 C27          4.4160    -1.3760     1.8910 c3         1 IZF      -0.071400
     30 C18          2.9590    -1.0690     1.4830 c3         1 IZF      -0.093400
     31 O3          -0.4000    -2.9860     2.5310 o          1 IZF      -0.600100
     32 Cl1         -4.7800     3.5820     1.3530 cl         1 IZF      -0.197000
     33 C4           5.4310    -1.0930     0.7590 c3         1 IZF      -0.083400
     34 C5           6.8860    -1.4050     1.1600 c3         1 IZF       0.167600
     35 C32          9.0990    -1.2530     0.0740 ca         1 IZF       0.225100
     36 C33          9.7590    -1.7610     1.2150 ca         1 IZF      -0.247000
     37 C34         11.1540    -1.9120     1.2180 ca         1 IZF      -0.011000
     38 C35         11.8950    -1.5580     0.0810 ca         1 IZF      -0.252000
     39 C36         11.2460    -1.0510    -1.0540 ca         1 IZF       0.216100
     40 C37          9.8490    -0.8960    -1.0610 ca         1 IZF      -0.208600
     41 C38          9.1550    -0.3610    -2.2650 c          1 IZF       0.633700
     42 O11          8.4010    -1.0370    -2.9560 o          1 IZF      -0.478000
     43 O4           9.4630     0.9530    -2.5200 os         1 IZF      -0.427100
     44 C39          8.8690     1.5740    -3.6750 c3         1 IZF       0.151900
     45 O14         11.9860    -0.7370    -2.1540 oh         1 IZF      -0.520100
     46 O5           7.7290    -1.0790     0.0420 os         1 IZF      -0.336100
     47 H1          -7.3930     3.1120     0.8120 h1         1 IZF       0.126700
     48 H2C1        -8.9970     0.7740     1.0920 hc         1 IZF       0.098700
     49 H2C2        -9.4800     2.1820     0.1370 hc         1 IZF       0.098700
     50 H4          -7.6790     0.7650    -2.8290 hn         1 IZF       0.359500
     51 H12         -7.2150    -0.6990     0.6890 ha         1 IZF       0.124000
     52 H13         -5.3980    -2.0350     1.6170 ha         1 IZF       0.125000
     53 H15         -3.0860     1.5430     2.3190 ha         1 IZF       0.127000
     54 H211        -3.2720    -2.2100     2.7910 hc         1 IZF       0.064700
     55 H212        -2.5750    -0.7630     3.4970 hc         1 IZF       0.064700
     56 H22         -1.5690    -0.1820     1.2950 h1         1 IZF       0.083700
     57 H45         -2.2320    -2.9580     0.4630 hn         1 IZF       0.499000
     58 H231         1.9880    -2.3490     2.9430 h1         1 IZF       0.056200
     59 H232         2.2140    -0.6720     3.4860 h1         1 IZF       0.056200
     60 H11          0.4290    -0.0100     1.8540 hn         1 IZF       0.316500
     61 H24          1.5960     2.1470    -0.9510 ha         1 IZF       0.120000
     62 H26         -0.2890     3.7660    -1.1540 ha         1 IZF       0.116000
     63 H7           1.1550    -0.2960    -0.9450 ha         1 IZF       0.135000
     64 H9          -3.0960     0.4900    -1.3530 ha         1 IZF       0.135000
     65 H10         -2.6300     2.9310    -1.3620 ha         1 IZF       0.120000
     66 H271         4.4920    -2.4300     2.1930 hc         1 IZF       0.043700
     67 H272         4.6800    -0.7720     2.7700 hc         1 IZF       0.043700
     68 H181         2.8920    -0.0250     1.1500 hc         1 IZF       0.048200
     69 H182         2.6820    -1.6990     0.6260 hc         1 IZF       0.048200
     70 H4C1         5.3620    -0.0370     0.4670 hc         1 IZF       0.061200
     71 H4C2         5.1690    -1.6910    -0.1230 hc         1 IZF       0.061200
     72 H5C1         6.9750    -2.4700     1.4160 h1         1 IZF       0.037200
     73 H5C2         7.1610    -0.8060     2.0390 h1         1 IZF       0.037200
     74 H33          9.2090    -2.0410     2.1090 ha         1 IZF       0.123000
     75 H34         11.6590    -2.3050     2.0990 ha         1 IZF       0.115000
     76 H35         12.9750    -1.6840     0.0900 ha         1 IZF       0.121000
     77 H391         9.1650     1.0520    -4.5950 h1         1 IZF       0.046033
     78 H392         7.7730     1.5620    -3.6040 h1         1 IZF       0.046033
     79 H393         9.1940     2.6190    -3.7560 h1         1 IZF       0.046033
     80 H14         12.9270    -0.9180    -1.9490 ho         1 IZF       0.472000
     81 N11          0.5890    -0.9500     2.1980 ns         1 IZF      -0.489900
@<TRIPOS>BOND
     1     1     2 1   
     2     1     5 1   
     3     1     9 1   
     4     1    47 1   
     5     2     3 1   
     6     2    48 1   
     7     2    49 1   
     8     3     4 1   
     9     3     8 2   
    10     4     5 1   
    11     4    50 1   
    12     5     6 2   
    13     5     7 2   
    14     9    10 ar  
    15     9    14 ar  
    16    10    11 ar  
    17    10    51 1   
    18    11    12 ar  
    19    11    52 1   
    20    12    13 ar  
    21    12    15 1   
    22    13    14 ar  
    23    13    53 1   
    24    14    32 1   
    25    15    16 1   
    26    15    54 1   
    27    15    55 1   
    28    16    17 1   
    29    16    22 1   
    30    16    56 1   
    31    17    18 1   
    32    17    57 1   
    33    18    19 2   
    34    18    20 2   
    35    18    26 1   
    36    21    30 1   
    37    21    58 1   
    38    21    59 1   
    39    21    81 1   
    40    22    31 2   
    41    22    81 1   
    42    23    24 ar  
    43    23    25 ar  
    44    23    61 1   
    45    24    28 ar  
    46    24    62 1   
    47    25    26 ar  
    48    25    63 1   
    49    26    27 ar  
    50    27    28 ar  
    51    27    64 1   
    52    28    65 1   
    53    29    30 1   
    54    29    33 1   
    55    29    66 1   
    56    29    67 1   
    57    30    68 1   
    58    30    69 1   
    59    33    34 1   
    60    33    70 1   
    61    33    71 1   
    62    34    46 1   
    63    34    72 1   
    64    34    73 1   
    65    35    36 ar  
    66    35    40 ar  
    67    35    46 1   
    68    36    37 ar  
    69    36    74 1   
    70    37    38 ar  
    71    37    75 1   
    72    38    39 ar  
    73    38    76 1   
    74    39    40 ar  
    75    39    45 1   
    76    40    41 1   
    77    41    42 2   
    78    41    43 1   
    79    43    44 1   
    80    44    77 1   
    81    44    78 1   
    82    44    79 1   
    83    45    80 1   
    84    60    81 1   
@<TRIPOS>SUBSTRUCTURE
     1 IZF         1 TEMP              0 ****  ****    0 ROOT
