@<TRIPOS>MOLECULE
IZF
   81    84     1     0     0
SMALL
abcg2


@<TRIPOS>ATOM
      1 C1          -7.0970     3.1160     0.8810 c5         1 IZF      -0.210400
      2 C2          -8.3040     2.9300     1.7950 c5         1 IZF      -0.161400
      3 C3          -9.1280     1.7640     1.2960 c          1 IZF       0.578000
      4 N4          -8.8260     1.5160    -0.0170 ns         1 IZF      -0.581300
      5 S5          -7.7600     2.5960    -0.7380 s6         1 IZF       1.182800
      6 O6          -8.4850     3.6980    -1.3430 o          1 IZF      -0.499000
      7 O7          -6.8260     1.8450    -1.5490 o          1 IZF      -0.499000
      8 O9          -9.9390     1.1430     1.9380 o          1 IZF      -0.491000
      9 C11         -5.8810     2.3030     1.2040 ca         1 IZF      -0.072300
     10 C12         -5.9370     1.1770     2.0180 ca         1 IZF      -0.083000
     11 C13         -4.8020     0.4350     2.3030 ca         1 IZF      -0.084000
     12 C14         -3.5670     0.8030     1.7890 ca         1 IZF      -0.052300
     13 C15         -3.4940     1.9280     0.9740 ca         1 IZF      -0.091000
     14 C16         -4.6350     2.6510     0.6830 ca         1 IZF       0.144000
     15 C21         -2.3310    -0.0010     2.0660 c3         1 IZF      -0.021100
     16 C22         -1.9180    -0.8280     0.8400 c3         1 IZF       0.132500
     17 N45         -2.9820    -1.7560     0.5020 n7         1 IZF      -0.849300
     18 S1          -3.1570    -2.2320    -1.0680 sy         1 IZF       1.145600
     19 O1          -3.3480    -1.0290    -1.8580 o          1 IZF      -0.523000
     20 O2          -4.1750    -3.2680    -1.0520 o          1 IZF      -0.523000
     21 C23          1.8020    -1.6260     0.8350 c3         1 IZF       0.098000
     22 C25         -0.6200    -1.5830     1.1400 c          1 IZF       0.562100
     23 C24         -0.1120    -4.8180    -1.5160 ca         1 IZF      -0.129500
     24 C26          0.8330    -4.0560    -2.1940 ca         1 IZF      -0.059000
     25 C7          -1.3410    -4.2700    -1.1860 ca         1 IZF      -0.013500
     26 C8          -1.6130    -2.9570    -1.5520 ca         1 IZF      -0.311500
     27 C9          -0.6800    -2.1870    -2.2340 ca         1 IZF      -0.013500
     28 C10          0.5490    -2.7460    -2.5520 ca         1 IZF      -0.129500
     29 C27          4.2730    -1.3320     0.4720 c3         1 IZF      -0.071400
     30 C18          2.9020    -0.6740     0.3970 c3         1 IZF      -0.093400
     31 O3          -0.6480    -2.6310     1.7660 o          1 IZF      -0.600100
     32 CL1         -4.4880     4.0230    -0.3650 cl         1 IZF      -0.197000
     33 C4           5.3970    -0.3820     0.0770 c3         1 IZF      -0.083400
     34 C5           6.7480    -1.0540     0.1980 c3         1 IZF       0.167600
     35 C32          9.0370    -0.4560    -0.0790 ca         1 IZF       0.225100
     36 C33          9.4910    -1.7060     0.3320 ca         1 IZF      -0.247000
     37 C34         10.8590    -1.9320     0.4090 ca         1 IZF      -0.011000
     38 C35         11.7800    -0.9490     0.0940 ca         1 IZF      -0.252000
     39 C36         11.3210     0.3030    -0.3090 ca         1 IZF       0.216100
     40 C37          9.9540     0.5530    -0.3990 ca         1 IZF      -0.208600
     41 C38          9.4600     1.8720    -0.8840 c          1 IZF       0.633700
     42 O11          8.8470     2.0300    -1.9090 o          1 IZF      -0.478000
     43 O4           9.7770     2.8500    -0.0540 os         1 IZF      -0.427100
     44 C39          9.4140     4.1790    -0.4350 c3         1 IZF       0.151900
     45 O14         12.1520     1.3020    -0.6510 oh         1 IZF      -0.520100
     46 O5           7.7450    -0.1130    -0.1750 os         1 IZF      -0.336100
     47 H1          -6.8500     4.1730     0.7770 h1         1 IZF       0.126700
     48 H2C1        -8.0160     2.7890     2.8360 hc         1 IZF       0.098700
     49 H2C2        -8.9360     3.8210     1.7580 hc         1 IZF       0.098700
     50 H4          -9.3210     0.8250    -0.5730 hn         1 IZF       0.359500
     51 H12         -6.8770     0.8600     2.4510 ha         1 IZF       0.124000
     52 H13         -4.8850    -0.4360     2.9400 ha         1 IZF       0.125000
     53 H15         -2.5430     2.2410     0.5620 ha         1 IZF       0.127000
     54 H211        -2.4930    -0.6690     2.9140 hc         1 IZF       0.064700
     55 H212        -1.5020     0.6580     2.3310 hc         1 IZF       0.064700
     56 H22         -1.7810    -0.1410     0.0020 h1         1 IZF       0.083700
     57 H45         -3.0530    -2.5360     1.1500 hn         1 IZF       0.499000
     58 H231         1.8300    -2.5360     0.2270 h1         1 IZF       0.056200
     59 H232         1.9600    -1.9250     1.8730 h1         1 IZF       0.056200
     60 H11          0.4270    -0.1910     0.1130 hn         1 IZF       0.316500
     61 H24          0.1090    -5.8390    -1.2390 ha         1 IZF       0.120000
     62 H26          1.7920    -4.4880    -2.4460 ha         1 IZF       0.116000
     63 H7          -2.0720    -4.8620    -0.6530 ha         1 IZF       0.135000
     64 H9          -0.9020    -1.1690    -2.5230 ha         1 IZF       0.135000
     65 H10          1.2840    -2.1550    -3.0810 ha         1 IZF       0.120000
     66 H271         4.2890    -2.2110    -0.1790 hc         1 IZF       0.043700
     67 H272         4.4450    -1.6980     1.4900 hc         1 IZF       0.043700
     68 H181         2.8840     0.2180     1.0300 hc         1 IZF       0.048200
     69 H182         2.7110    -0.3410    -0.6280 hc         1 IZF       0.048200
     70 H4C1         5.3760     0.5010     0.7220 hc         1 IZF       0.061200
     71 H4C2         5.2460    -0.0370    -0.9500 hc         1 IZF       0.061200
     72 H5C1         6.7990    -1.9350    -0.4510 h1         1 IZF       0.037200
     73 H5C2         6.9120    -1.3890     1.2280 h1         1 IZF       0.037200
     74 H33          8.8060    -2.5010     0.5900 ha         1 IZF       0.123000
     75 H34         11.2130    -2.9040     0.7270 ha         1 IZF       0.115000
     76 H35         12.8430    -1.1500     0.1570 ha         1 IZF       0.121000
     77 H391         9.8890     4.4660    -1.3730 h1         1 IZF       0.046033
     78 H392         8.3340     4.2840    -0.5310 h1         1 IZF       0.046033
     79 H393         9.7700     4.8250     0.3620 h1         1 IZF       0.046033
     80 H14         13.0700     1.0180    -0.5750 ho         1 IZF       0.472000
     81 N11          0.5010    -1.0010     0.7080 ns         1 IZF      -0.489900
@<TRIPOS>BOND
     1     1     2 1   
     2     1     5 1   
     3     1     9 1   
     4     1    47 1   
     5     2     3 1   
     6     2    48 1   
     7     2    49 1   
     8     3     4 1   
     9     3     8 2   
    10     4     5 1   
    11     4    50 1   
    12     5     6 2   
    13     5     7 2   
    14     9    10 ar  
    15     9    14 ar  
    16    10    11 ar  
    17    10    51 1   
    18    11    12 ar  
    19    11    52 1   
    20    12    13 ar  
    21    12    15 1   
    22    13    14 ar  
    23    13    53 1   
    24    14    32 1   
    25    15    16 1   
    26    15    54 1   
    27    15    55 1   
    28    16    17 1   
    29    16    22 1   
    30    16    56 1   
    31    17    18 1   
    32    17    57 1   
    33    18    19 2   
    34    18    20 2   
    35    18    26 1   
    36    21    30 1   
    37    21    58 1   
    38    21    59 1   
    39    21    81 1   
    40    22    31 2   
    41    22    81 1   
    42    23    24 ar  
    43    23    25 ar  
    44    23    61 1   
    45    24    28 ar  
    46    24    62 1   
    47    25    26 ar  
    48    25    63 1   
    49    26    27 ar  
    50    27    28 ar  
    51    27    64 1   
    52    28    65 1   
    53    29    30 1   
    54    29    33 1   
    55    29    66 1   
    56    29    67 1   
    57    30    68 1   
    58    30    69 1   
    59    33    34 1   
    60    33    70 1   
    61    33    71 1   
    62    34    46 1   
    63    34    72 1   
    64    34    73 1   
    65    35    36 ar  
    66    35    40 ar  
    67    35    46 1   
    68    36    37 ar  
    69    36    74 1   
    70    37    38 ar  
    71    37    75 1   
    72    38    39 ar  
    73    38    76 1   
    74    39    40 ar  
    75    39    45 1   
    76    40    41 1   
    77    41    42 2   
    78    41    43 1   
    79    43    44 1   
    80    44    77 1   
    81    44    78 1   
    82    44    79 1   
    83    45    80 1   
    84    60    81 1   
@<TRIPOS>SUBSTRUCTURE
     1 IZF         1 TEMP              0 ****  ****    0 ROOT
