@<TRIPOS>MOLECULE
IZG
   43    45     1     0     0
SMALL
abcg2


@<TRIPOS>ATOM
      1 C1         -34.3620    33.0730     2.9170 c3         1 IZG       0.081300
      2 N2         -34.1330    32.0030     3.8940 n          1 IZG      -0.269000
      3 C3         -32.8960    31.4410     4.0040 cc         1 IZG       0.367200
      4 N4         -31.9450    31.9340     3.1660 nc         1 IZG      -0.671300
      5 C5         -30.7550    31.4290     3.2540 cd         1 IZG       0.546800
      6 N6         -30.3780    30.4670     4.1210 n          1 IZG      -0.307300
      7 C7         -28.9740    30.0290     4.1420 c3         1 IZG       0.088000
      8 C8         -28.0690    31.0470     4.8180 c3         1 IZG       0.149300
      9 O10        -28.5200    31.2370     6.1550 oh         1 IZG      -0.648000
     10 C11        -26.6270    30.5720     4.7960 c3         1 IZG       0.123600
     11 O12        -25.8530    31.5870     5.4400 oh         1 IZG      -0.674000
     12 C13        -31.2960    29.8980     5.0170 c          1 IZG       0.597200
     13 O14        -30.9210    29.0320     5.8140 o          1 IZG      -0.552000
     14 C15        -32.6400    30.4100     4.9110 cd         1 IZG      -0.338200
     15 C16        -33.7170    29.9000     5.7270 cd         1 IZG       0.268000
     16 N17        -33.4830    28.8510     6.5730 nu         1 IZG      -0.826000
     17 C18        -34.3800    27.8460     6.9430 ca         1 IZG       0.285000
     18 C19        -35.4990    27.4720     6.1980 ca         1 IZG      -0.120000
     19 C20        -36.3190    26.4290     6.6070 ca         1 IZG      -0.067000
     20 C21        -36.0170    25.7310     7.7700 ca         1 IZG       0.194000
     21 I22        -37.2570    24.1400     8.3930 i          1 IZG      -0.306000
     22 C23        -34.9000    26.0630     8.5290 ca         1 IZG      -0.096000
     23 C24        -34.1130    27.1110     8.1000 ca         1 IZG       0.133000
     24 F25        -33.0200    27.4430     8.8270 f          1 IZG      -0.173000
     25 C26        -34.9180    30.5510     5.6250 cc         1 IZG      -0.095700
     26 F27        -35.9390    30.2160     6.4450 f          1 IZG      -0.146500
     27 C28        -35.2050    31.6130     4.7140 c          1 IZG       0.569200
     28 O29        -36.3050    32.1640     4.6400 o          1 IZG      -0.524000
     29 H1         -35.4080    33.3490     2.9800 h1         1 IZG       0.064367
     30 H1A        -33.7340    33.9310     3.1490 h1         1 IZG       0.064367
     31 H1B        -34.1260    32.7170     1.9170 h1         1 IZG       0.064367
     32 H5         -29.9800    31.7920     2.5890 h5         1 IZG       0.055800
     33 H7         -28.9420    29.0810     4.6690 h1         1 IZG       0.081700
     34 H7A        -28.6530    29.8780     3.1130 h1         1 IZG       0.081700
     35 H8         -28.1250    31.9980     4.2730 h1         1 IZG       0.043700
     36 HO10       -27.8500    31.7750     6.5990 ho         1 IZG       0.466000
     37 H11        -26.5460    29.6230     5.3350 h1         1 IZG       0.040200
     38 H11A       -26.2970    30.4240     3.7630 h1         1 IZG       0.040200
     39 HO12       -25.0090    31.2080     5.7130 ho         1 IZG       0.457000
     40 HN17       -32.4920    28.6330     6.6690 hn         1 IZG       0.543000
     41 H19        -35.7250    27.9900     5.2770 ha         1 IZG       0.132000
     42 H20        -37.1790    26.1630     6.0090 ha         1 IZG       0.133000
     43 H23        -34.6370    25.5380     9.4360 ha         1 IZG       0.145000
@<TRIPOS>BOND
     1     1     2 1   
     2     1    29 1   
     3     1    30 1   
     4     1    31 1   
     5     2     3 1   
     6     2    27 1   
     7     3     4 1   
     8     3    14 2   
     9     4     5 2   
    10     5     6 1   
    11     5    32 1   
    12     6     7 1   
    13     6    12 1   
    14     7     8 1   
    15     7    33 1   
    16     7    34 1   
    17     8     9 1   
    18     8    10 1   
    19     8    35 1   
    20     9    36 1   
    21    10    11 1   
    22    10    37 1   
    23    10    38 1   
    24    11    39 1   
    25    12    13 2   
    26    12    14 1   
    27    14    15 1   
    28    15    16 1   
    29    15    25 2   
    30    16    17 1   
    31    16    40 1   
    32    17    18 ar  
    33    17    23 ar  
    34    18    19 ar  
    35    18    41 1   
    36    19    20 ar  
    37    19    42 1   
    38    20    21 1   
    39    20    22 ar  
    40    22    23 ar  
    41    22    43 1   
    42    23    24 1   
    43    25    26 1   
    44    25    27 1   
    45    27    28 2   
@<TRIPOS>SUBSTRUCTURE
     1 IZG         1 TEMP              0 ****  ****    0 ROOT
