@<TRIPOS>MOLECULE
IZG
   43    45     1     0     0
SMALL
No Charge or Current Charge


@<TRIPOS>ATOM
      1 C1         -34.4420    33.1850     2.8400 c3         1 IZG       0.081300
      2 N2         -34.2290    32.0890     3.8320 n          1 IZG      -0.269000
      3 C3         -32.9710    31.5010     3.9750 cc         1 IZG       0.367200
      4 N4         -31.9700    32.0110     3.1820 nc         1 IZG      -0.671300
      5 C5         -30.7540    31.4960     3.2770 cd         1 IZG       0.546800
      6 N6         -30.4000    30.4820     4.1230 n          1 IZG      -0.307300
      7 C7         -28.9830    30.0230     4.1590 c3         1 IZG       0.088000
      8 C8         -28.0130    31.0270     4.8360 c3         1 IZG       0.149300
      9 O10        -28.4560    31.3430     6.1630 oh         1 IZG      -0.648000
     10 C11        -26.5610    30.4860     4.9190 c3         1 IZG       0.123600
     11 O12        -25.7350    31.4130     5.6490 oh         1 IZG      -0.674000
     12 C13        -31.3420    29.9100     4.9680 c          1 IZG       0.597200
     13 O14        -31.0370    29.0170     5.7490 o          1 IZG      -0.552000
     14 C15        -32.7180    30.4620     4.8580 cd         1 IZG      -0.338200
     15 C16        -33.8330    29.9670     5.6390 cd         1 IZG       0.268000
     16 N17        -33.6160    28.9060     6.4830 nu         1 IZG      -0.826000
     17 C18        -34.4010    27.8340     6.9430 ca         1 IZG       0.285000
     18 C19        -35.5440    27.4110     6.2340 ca         1 IZG      -0.120000
     19 C20        -36.3050    26.3180     6.6910 ca         1 IZG      -0.067000
     20 C21        -35.9210    25.6290     7.8520 ca         1 IZG       0.194000
     21 I22        -37.0920    23.9470     8.5490 i          1 IZG      -0.306000
     22 C23        -34.7720    26.0190     8.5530 ca         1 IZG      -0.096000
     23 C24        -34.0120    27.1100     8.0970 ca         1 IZG       0.133000
     24 F25        -32.8970    27.4640     8.7820 f          1 IZG      -0.173000
     25 C26        -35.0580    30.6000     5.5590 cc         1 IZG      -0.095700
     26 F27        -36.0850    30.2580     6.3660 f          1 IZG      -0.146500
     27 C28        -35.3150    31.7130     4.6360 c          1 IZG       0.569200
     28 O29        -36.4060    32.2720     4.5730 o          1 IZG      -0.524000
     29 H1         -35.5040    33.4080     2.6880 h1         1 IZG       0.064367
     30 H1A        -33.9370    34.0960     3.1860 h1         1 IZG       0.064367
     31 H1B        -34.0250    32.8960     1.8670 h1         1 IZG       0.064367
     32 H5         -29.9660    31.8970     2.6510 h5         1 IZG       0.055800
     33 H7         -28.9030    29.0540     4.6670 h1         1 IZG       0.081700
     34 H7A        -28.6470    29.8560     3.1270 h1         1 IZG       0.081700
     35 H8         -27.9940    31.9430     4.2300 h1         1 IZG       0.043700
     36 HO10       -27.6410    31.6610     6.6200 ho         1 IZG       0.466000
     37 H11        -26.5640    29.5050     5.4120 h1         1 IZG       0.040200
     38 H11A       -26.1730    30.3460     3.9000 h1         1 IZG       0.040200
     39 HO12       -24.8130    31.0670     5.6210 ho         1 IZG       0.457000
     40 HN17       -32.6130    28.7750     6.6690 hn         1 IZG       0.543000
     41 H19        -35.8380    27.9170     5.3190 ha         1 IZG       0.132000
     42 H20        -37.1880    26.0010     6.1420 ha         1 IZG       0.133000
     43 H23        -34.4680    25.4780     9.4450 ha         1 IZG       0.145000
@<TRIPOS>BOND
     1     1     2 1   
     2     1    29 1   
     3     1    30 1   
     4     1    31 1   
     5     2     3 1   
     6     2    27 1   
     7     3     4 1   
     8     3    14 2   
     9     4     5 2   
    10     5     6 1   
    11     5    32 1   
    12     6     7 1   
    13     6    12 1   
    14     7     8 1   
    15     7    33 1   
    16     7    34 1   
    17     8     9 1   
    18     8    10 1   
    19     8    35 1   
    20     9    36 1   
    21    10    11 1   
    22    10    37 1   
    23    10    38 1   
    24    11    39 1   
    25    12    13 2   
    26    12    14 1   
    27    14    15 1   
    28    15    16 1   
    29    15    25 2   
    30    16    17 1   
    31    16    40 1   
    32    17    18 ar  
    33    17    23 ar  
    34    18    19 ar  
    35    18    41 1   
    36    19    20 ar  
    37    19    42 1   
    38    20    21 1   
    39    20    22 ar  
    40    22    23 ar  
    41    22    43 1   
    42    23    24 1   
    43    25    26 1   
    44    25    27 1   
    45    27    28 2   
@<TRIPOS>SUBSTRUCTURE
     1 IZG         1 TEMP              0 ****  ****    0 ROOT
