@<TRIPOS>MOLECULE
IZH
   49    52     1     0     0
SMALL
abcg2


@<TRIPOS>ATOM
      1 C10         30.6580   -46.6680   -11.7430 c3         1 IZH      -0.070700
      2 C13         27.5110   -44.8100   -15.0100 cc         1 IZH      -0.101300
      3 C16         28.6160   -45.2640   -14.2610 cc         1 IZH      -0.042000
      4 C19         26.1210   -44.9710   -14.4960 c3         1 IZH      -0.032800
      5 C20         31.5010   -44.3850   -16.4580 c3         1 IZH      -0.144400
      6 C21         32.8430   -50.0050    -6.5500 c5         1 IZH       0.172500
      7 C22         33.2570   -49.1790    -5.3270 c5         1 IZH      -0.088400
      8 C23         33.9670   -47.9650    -5.9180 c5         1 IZH      -0.098400
      9 C24         33.2180   -47.7100    -7.2200 c5         1 IZH       0.232800
     10 C25         33.8640   -51.0700    -6.9180 c3         1 IZH       0.290000
     11 N1          32.7390   -49.0320    -7.6120 nh         1 IZH      -0.768300
     12 C2          30.0530   -46.0310   -12.9450 cd         1 IZH       0.531300
     13 C3          30.6040   -48.6670   -10.2420 cc         1 IZH       0.453800
     14 N4          31.5850   -48.1830    -9.5030 nd         1 IZH      -0.744000
     15 C5          31.7780   -49.1480    -8.5760 cd         1 IZH       0.786900
     16 N6          30.9810   -50.1870    -8.6950 nc         1 IZH      -0.595800
     17 N7          30.2360   -49.8590    -9.7730 na         1 IZH      -0.057700
     18 C8          29.2200   -50.7620   -10.2470 c3         1 IZH       0.075900
     19 C9          30.0010   -48.0100   -11.4350 c3         1 IZH      -0.103700
     20 N11         29.0880   -44.0880   -16.6900 nd         1 IZH      -0.698000
     21 C12         27.8280   -44.2350   -16.2090 cd         1 IZH       0.344900
     22 C14         30.0960   -44.5110   -15.9950 cc         1 IZH       0.570800
     23 N15         29.8670   -45.0960   -14.7880 na         1 IZH       0.071900
     24 N17         28.7230   -45.8570   -13.0870 nd         1 IZH      -0.408300
     25 N18         30.7870   -45.5900   -13.9460 nc         1 IZH      -0.582100
     26 F27         35.1020   -50.5760    -7.0550 f          1 IZH      -0.115000
     27 F28         33.5670   -51.6760    -8.0740 f          1 IZH      -0.115000
     28 H34         31.7280   -46.7910   -11.9060 hc         1 IZH       0.081700
     29 H35         30.5420   -45.9960   -10.8890 hc         1 IZH       0.081700
     30 H38         25.8810   -46.0230   -14.3400 hc         1 IZH       0.053700
     31 H37         25.9950   -44.4670   -13.5370 hc         1 IZH       0.053700
     32 H39         25.3980   -44.5560   -15.1960 hc         1 IZH       0.053700
     33 H41         31.5180   -43.9030   -17.4310 hc         1 IZH       0.073367
     34 H42         32.0910   -43.7940   -15.7560 hc         1 IZH       0.073367
     35 H40         31.9760   -45.3630   -16.5350 hc         1 IZH       0.073367
     36 H43         31.8910   -50.5190    -6.3780 h1         1 IZH       0.096700
     37 H45         32.3490   -48.8670    -4.8090 hc         1 IZH       0.064200
     38 H44         33.8620   -49.7300    -4.6080 hc         1 IZH       0.064200
     39 H47         33.9220   -47.1000    -5.2580 hc         1 IZH       0.061700
     40 H46         35.0200   -48.1750    -6.1070 hc         1 IZH       0.061700
     41 H48         33.8570   -47.2760    -7.9900 h1         1 IZH       0.056700
     42 H49         32.3800   -47.0240    -7.0620 h1         1 IZH       0.056700
     43 H30         29.6650   -51.7130   -10.5360 h1         1 IZH       0.058033
     44 H29         28.4790   -50.9370    -9.4690 h1         1 IZH       0.058033
     45 H31         28.7230   -50.3320   -11.1110 h1         1 IZH       0.058033
     46 H32         30.0980   -48.6740   -12.3000 hc         1 IZH       0.068200
     47 H33         28.9290   -47.8720   -11.2780 hc         1 IZH       0.068200
     48 H36         27.0380   -43.8580   -16.8490 h4         1 IZH       0.032100
     49 F26         33.9290   -52.0260    -5.9790 f          1 IZH      -0.115000
@<TRIPOS>BOND
     1     1    12 1   
     2     1    19 1   
     3     1    28 1   
     4     1    29 1   
     5     2     3 1   
     6     2     4 1   
     7     2    21 2   
     8     3    23 1   
     9     3    24 2   
    10     4    30 1   
    11     4    31 1   
    12     4    32 1   
    13     5    22 1   
    14     5    33 1   
    15     5    34 1   
    16     5    35 1   
    17     6     7 1   
    18     6    10 1   
    19     6    11 1   
    20     6    36 1   
    21     7     8 1   
    22     7    37 1   
    23     7    38 1   
    24     8     9 1   
    25     8    39 1   
    26     8    40 1   
    27     9    11 1   
    28     9    41 1   
    29     9    42 1   
    30    10    26 1   
    31    10    27 1   
    32    10    49 1   
    33    11    15 1   
    34    12    24 1   
    35    12    25 2   
    36    13    14 2   
    37    13    17 1   
    38    13    19 1   
    39    14    15 1   
    40    15    16 2   
    41    16    17 1   
    42    17    18 1   
    43    18    43 1   
    44    18    44 1   
    45    18    45 1   
    46    19    46 1   
    47    19    47 1   
    48    20    21 1   
    49    20    22 2   
    50    21    48 1   
    51    22    23 1   
    52    23    25 1   
@<TRIPOS>SUBSTRUCTURE
     1 IZH         1 TEMP              0 ****  ****    0 ROOT
