@<TRIPOS>MOLECULE
IZH
   49    52     1     0     0
SMALL
No Charge or Current Charge


@<TRIPOS>ATOM
      1 C10         30.6060   -46.5820   -11.7240 c3         1 IZH      -0.070700
      2 C13         27.5400   -44.1880   -14.7830 cc         1 IZH      -0.101300
      3 C16         28.5920   -44.9020   -14.1550 cc         1 IZH      -0.042000
      4 C19         26.3560   -43.7610   -13.9520 c3         1 IZH      -0.032800
      5 C20         30.9600   -45.4610   -17.0330 c3         1 IZH      -0.144400
      6 C21         32.8740   -50.0950    -6.4450 c5         1 IZH       0.172500
      7 C22         32.8800   -49.2930    -5.1060 c5         1 IZH      -0.088400
      8 C23         33.4570   -47.9160    -5.5300 c5         1 IZH      -0.098400
      9 C24         32.6810   -47.6390    -6.8420 c5         1 IZH       0.232800
     10 C25         34.2010   -50.8680    -6.7810 c3         1 IZH       0.290000
     11 N1          32.5180   -49.0020    -7.4060 nh         1 IZH      -0.768300
     12 C2          29.9900   -45.9460   -12.9400 cd         1 IZH       0.531300
     13 C3          30.8310   -48.7630   -10.3650 cc         1 IZH       0.453800
     14 N4          31.4810   -48.1750    -9.3800 nd         1 IZH      -0.744000
     15 C5          31.8090   -49.2270    -8.5720 cd         1 IZH       0.786900
     16 N6          31.4190   -50.4250    -8.9530 nc         1 IZH      -0.595800
     17 N7          30.7840   -50.1220   -10.1160 na         1 IZH      -0.057700
     18 C8          30.1550   -51.1690   -10.9410 c3         1 IZH       0.075900
     19 C9          30.2210   -48.0770   -11.5630 c3         1 IZH      -0.103700
     20 N11         28.7770   -44.3350   -16.8740 nd         1 IZH      -0.698000
     21 C12         27.6520   -43.9160   -16.1380 cd         1 IZH       0.344900
     22 C14         29.7600   -45.0140   -16.2450 cc         1 IZH       0.570800
     23 N15         29.6650   -45.3000   -14.8670 na         1 IZH       0.071900
     24 N17         28.7610   -45.2980   -12.9110 nd         1 IZH      -0.408300
     25 N18         30.5890   -45.9740   -14.1280 nc         1 IZH      -0.582100
     26 F27         35.2630   -50.0450    -6.9500 f          1 IZH      -0.115000
     27 F28         34.0850   -51.5950    -7.9150 f          1 IZH      -0.115000
     28 H34         31.6970   -46.4910   -11.7790 hc         1 IZH       0.081700
     29 H35         30.2940   -46.0270   -10.8310 hc         1 IZH       0.081700
     30 H38         25.8540   -44.6300   -13.5100 hc         1 IZH       0.053700
     31 H37         26.6690   -43.1000   -13.1350 hc         1 IZH       0.053700
     32 H39         25.6160   -43.2200   -14.5540 hc         1 IZH       0.053700
     33 H41         30.8810   -45.1620   -18.0840 hc         1 IZH       0.073367
     34 H42         31.8750   -45.0200   -16.6230 hc         1 IZH       0.073367
     35 H40         31.0580   -46.5510   -16.9970 hc         1 IZH       0.073367
     36 H43         32.0810   -50.8560    -6.3990 h1         1 IZH       0.096700
     37 H45         31.8610   -49.1840    -4.7150 hc         1 IZH       0.064200
     38 H44         33.4720   -49.7760    -4.3200 hc         1 IZH       0.064200
     39 H47         33.2870   -47.1370    -4.7790 hc         1 IZH       0.061700
     40 H46         34.5370   -47.9590    -5.7070 hc         1 IZH       0.061700
     41 H48         33.2380   -46.9690    -7.5110 h1         1 IZH       0.056700
     42 H49         31.7020   -47.1830    -6.6350 h1         1 IZH       0.056700
     43 H30         30.2030   -52.1360   -10.4260 h1         1 IZH       0.058033
     44 H29         29.1040   -50.9120   -11.1240 h1         1 IZH       0.058033
     45 H31         30.6820   -51.2460   -11.9000 h1         1 IZH       0.058033
     46 H32         30.5210   -48.6150   -12.4710 hc         1 IZH       0.068200
     47 H33         29.1300   -48.1580   -11.4990 hc         1 IZH       0.068200
     48 H36         26.8910   -43.3760   -16.6870 h4         1 IZH       0.032100
     49 F26         34.5250   -51.7350    -5.7940 f          1 IZH      -0.115000
@<TRIPOS>BOND
     1     1    12 1   
     2     1    19 1   
     3     1    28 1   
     4     1    29 1   
     5     2     3 1   
     6     2     4 1   
     7     2    21 2   
     8     3    23 1   
     9     3    24 2   
    10     4    30 1   
    11     4    31 1   
    12     4    32 1   
    13     5    22 1   
    14     5    33 1   
    15     5    34 1   
    16     5    35 1   
    17     6     7 1   
    18     6    10 1   
    19     6    11 1   
    20     6    36 1   
    21     7     8 1   
    22     7    37 1   
    23     7    38 1   
    24     8     9 1   
    25     8    39 1   
    26     8    40 1   
    27     9    11 1   
    28     9    41 1   
    29     9    42 1   
    30    10    26 1   
    31    10    27 1   
    32    10    49 1   
    33    11    15 1   
    34    12    24 1   
    35    12    25 2   
    36    13    14 2   
    37    13    17 1   
    38    13    19 1   
    39    14    15 1   
    40    15    16 2   
    41    16    17 1   
    42    17    18 1   
    43    18    43 1   
    44    18    44 1   
    45    18    45 1   
    46    19    46 1   
    47    19    47 1   
    48    20    21 1   
    49    20    22 2   
    50    21    48 1   
    51    22    23 1   
    52    23    25 1   
@<TRIPOS>SUBSTRUCTURE
     1 IZH         1 TEMP              0 ****  ****    0 ROOT
