@<TRIPOS>MOLECULE
IZM
   36    38     1     0     0
SMALL
No Charge or Current Charge


@<TRIPOS>ATOM
      1 C13        178.1610   161.8200   143.5250 cc         1 IZM       0.731300
      2 C20        176.6540   167.6070   151.2820 ca         1 IZM      -0.011000
      3 C21        177.5190   168.5350   151.9100 ca         1 IZM      -0.209000
      4 C16        177.6110   160.1130   141.7890 c3         1 IZM       0.209100
      5 C19        177.1270   166.8960   150.1690 ca         1 IZM       0.024400
      6 C15        179.8940   161.2150   141.8390 c3         1 IZM       0.209100
      7 C10        177.9550   163.3130   145.4250 cc         1 IZM      -0.258800
      8 C11        176.8370   162.5550   145.1390 cd         1 IZM       0.363900
      9 C01        179.3520   170.4240   153.1510 c3         1 IZM       0.148900
     10 C03        178.8400   168.7400   151.4220 ca         1 IZM       0.158100
     11 C04        179.2940   168.0150   150.3030 ca         1 IZM      -0.141000
     12 C05        178.4030   167.1120   149.7180 ca         1 IZM       0.066100
     13 O06        178.5910   166.3140   148.6590 os         1 IZM      -0.287700
     14 C07        177.4140   165.6330   148.4990 cd         1 IZM       0.586900
     15 C08        177.2430   164.6590   147.4300 cf         1 IZM      -0.276600
     16 C09        178.1560   164.2940   146.4870 ce         1 IZM      -0.054200
     17 N12        176.9580   161.7010   144.0510 nd         1 IZM      -0.746000
     18 N14        178.5410   161.0770   142.4260 nh         1 IZM      -0.768300
     19 S17        179.2350   162.9650   144.2980 ss         1 IZM      -0.099400
     20 N18        176.4590   165.9400   149.3960 nc         1 IZM      -0.562100
     21 H1         175.6430   167.4470   151.6510 ha         1 IZM       0.132000
     22 H2         177.1470   169.0820   152.7710 ha         1 IZM       0.121000
     23 H3         176.7100   160.6290   141.4320 h1         1 IZM       0.049700
     24 H4         178.0740   159.6090   140.9310 h1         1 IZM       0.049700
     25 H5         177.3050   159.3430   142.5100 h1         1 IZM       0.049700
     26 H6         180.0640   162.2470   141.5050 h1         1 IZM       0.049700
     27 H7         180.6620   160.9590   142.5810 h1         1 IZM       0.049700
     28 H8         180.0290   160.5540   140.9730 h1         1 IZM       0.049700
     29 H9         175.9030   162.5800   145.6870 h4         1 IZM       0.041100
     30 H10        180.1910   171.0650   153.4510 h1         1 IZM       0.042367
     31 H11        178.4950   171.0710   152.9240 h1         1 IZM       0.042367
     32 H12        179.0940   169.7820   154.0030 h1         1 IZM       0.042367
     33 H13        180.2970   168.1520   149.9100 ha         1 IZM       0.146000
     34 H14        176.2590   164.1940   147.4200 ha         1 IZM       0.205000
     35 H16        179.1420   164.7670   146.5040 ha         1 IZM       0.188000
     36 O02        179.7150   169.6340   152.0050 os         1 IZM      -0.340100
@<TRIPOS>BOND
     1     1    17 2   
     2     1    18 1   
     3     1    19 1   
     4     2     3 ar  
     5     2     5 ar  
     6     2    21 1   
     7     3    10 ar  
     8     3    22 1   
     9     4    18 1   
    10     4    23 1   
    11     4    24 1   
    12     4    25 1   
    13     5    12 ar  
    14     5    20 1   
    15     6    18 1   
    16     6    26 1   
    17     6    27 1   
    18     6    28 1   
    19     7     8 2   
    20     7    16 1   
    21     7    19 1   
    22     8    17 1   
    23     8    29 1   
    24     9    30 1   
    25     9    31 1   
    26     9    32 1   
    27     9    36 1   
    28    10    11 ar  
    29    10    36 1   
    30    11    12 ar  
    31    11    33 1   
    32    12    13 1   
    33    13    14 1   
    34    14    15 1   
    35    14    20 2   
    36    15    16 2   
    37    15    34 1   
    38    16    35 1   
@<TRIPOS>SUBSTRUCTURE
     1 IZM         1 TEMP              0 ****  ****    0 ROOT
