@<TRIPOS>MOLECULE
IZM
   36    38     1     0     0
SMALL
abcg2


@<TRIPOS>ATOM
      1 C13        178.1290   161.8620   143.5710 cc         1 IZM       0.731300
      2 C20        176.6230   167.6930   151.2200 ca         1 IZM      -0.011000
      3 C21        177.5610   168.5290   151.8130 ca         1 IZM      -0.209000
      4 C16        177.7950   160.1290   141.9070 c3         1 IZM       0.209100
      5 C19        177.0100   166.9520   150.1140 ca         1 IZM       0.024400
      6 C15        179.9510   161.3550   142.0780 c3         1 IZM       0.209100
      7 C10        177.8230   163.3850   145.4680 cc         1 IZM      -0.258800
      8 C11        176.7620   162.5910   145.1220 cd         1 IZM       0.363900
      9 C01        179.4970   170.1860   152.9960 c3         1 IZM       0.148900
     10 C03        178.8690   168.6290   151.3130 ca         1 IZM       0.158100
     11 C04        179.2710   167.8910   150.1960 ca         1 IZM      -0.141000
     12 C05        178.3140   167.0760   149.6410 ca         1 IZM       0.066100
     13 O06        178.4320   166.2550   148.5710 os         1 IZM      -0.287700
     14 C07        177.2100   165.6670   148.4410 cd         1 IZM       0.586900
     15 C08        177.0110   164.7110   147.3920 cf         1 IZM      -0.276600
     16 C09        177.9690   164.3550   146.5120 ce         1 IZM      -0.054200
     17 N12        176.9240   161.7500   144.0820 nd         1 IZM      -0.746000
     18 N14        178.5900   161.1700   142.5260 nh         1 IZM      -0.768300
     19 S17        179.1430   163.0270   144.3800 ss         1 IZM      -0.099400
     20 N18        176.3390   166.0440   149.3190 nc         1 IZM      -0.562100
     21 H1         175.6200   167.6260   151.6210 ha         1 IZM       0.132000
     22 H2         177.2580   169.1050   152.6760 ha         1 IZM       0.121000
     23 H3         176.7890   160.1390   142.3130 h1         1 IZM       0.049700
     24 H4         177.7400   160.2900   140.8310 h1         1 IZM       0.049700
     25 H5         178.2370   159.1470   142.0890 h1         1 IZM       0.049700
     26 H6         180.1500   162.4000   141.8320 h1         1 IZM       0.049700
     27 H7         180.6760   161.0280   142.8280 h1         1 IZM       0.049700
     28 H8         180.1100   160.7680   141.1770 h1         1 IZM       0.049700
     29 H9         175.8110   162.6050   145.6390 h4         1 IZM       0.041100
     30 H10        180.3970   170.7370   153.2570 h1         1 IZM       0.042367
     31 H11        178.6930   170.9010   152.8040 h1         1 IZM       0.042367
     32 H12        179.2140   169.5550   153.8430 h1         1 IZM       0.042367
     33 H13        180.2780   167.9640   149.8060 ha         1 IZM       0.146000
     34 H14        176.0200   164.2780   147.3590 ha         1 IZM       0.205000
     35 H16        178.9450   164.8240   146.5860 ha         1 IZM       0.188000
     36 O02        179.8150   169.4210   151.8510 os         1 IZM      -0.340100
@<TRIPOS>BOND
     1     1    17 2   
     2     1    18 1   
     3     1    19 1   
     4     2     3 ar  
     5     2     5 ar  
     6     2    21 1   
     7     3    10 ar  
     8     3    22 1   
     9     4    18 1   
    10     4    23 1   
    11     4    24 1   
    12     4    25 1   
    13     5    12 ar  
    14     5    20 1   
    15     6    18 1   
    16     6    26 1   
    17     6    27 1   
    18     6    28 1   
    19     7     8 2   
    20     7    16 1   
    21     7    19 1   
    22     8    17 1   
    23     8    29 1   
    24     9    30 1   
    25     9    31 1   
    26     9    32 1   
    27     9    36 1   
    28    10    11 ar  
    29    10    36 1   
    30    11    12 ar  
    31    11    33 1   
    32    12    13 1   
    33    13    14 1   
    34    14    15 1   
    35    14    20 2   
    36    15    16 2   
    37    15    34 1   
    38    16    35 1   
@<TRIPOS>SUBSTRUCTURE
     1 IZM         1 TEMP              0 ****  ****    0 ROOT
