@<TRIPOS>MOLECULE
IZN
   41    44     1     0     0
SMALL
abcg2


@<TRIPOS>ATOM
      1 N1          -0.7080    -1.7320     0.1860 n3         1 IZN      -0.708600
      2 C1           0.0650    -2.6470    -0.6250 c6         1 IZN       0.174800
      3 C2           1.5730    -2.4710    -0.4590 c6         1 IZN      -0.071200
      4 C3          -1.7380     1.4070     1.1690 c2         1 IZN      -0.193200
      5 C4          -0.4630    -0.3240    -0.1170 c5         1 IZN       0.281600
      6 C5          -1.1910     0.1650    -1.3900 c6         1 IZN      -0.048400
      7 C6          -2.4920     0.9020    -1.1290 c6         1 IZN       0.177300
      8 C7          -2.2440     2.0150    -0.1040 c6         1 IZN      -0.078200
      9 C8          -0.9560     0.3370     1.1480 c2         1 IZN      -0.106400
     10 C9          -0.5450    -0.5490     2.2790 c5         1 IZN      -0.051200
     11 C10         -0.5800    -1.9450     1.6350 c5         1 IZN       0.173800
     12 C11          1.0250    -0.0490    -0.2700 c2         1 IZN      -0.117400
     13 C12          1.9230    -1.0190    -0.3970 c2         1 IZN      -0.160400
     14 C13          3.3680    -0.6520    -0.5120 c6         1 IZN       0.212800
     15 C14          2.8610     1.5510     0.2950 c          1 IZN       0.668100
     16 C15          1.5030     1.3740    -0.3260 c6         1 IZN      -0.156200
     17 O1           3.2130     2.5540     0.8630 o          1 IZN      -0.501000
     18 O2           3.7110     0.5360     0.2060 os         1 IZN      -0.438100
     19 O3          -3.4450    -0.0430    -0.7020 os         1 IZN      -0.435000
     20 C16         -4.7230     0.4810    -0.4540 c3         1 IZN       0.145900
     21 H11C        -0.2280    -3.6720    -0.3850 h1         1 IZN       0.057200
     22 H12C        -0.2020    -2.4910    -1.6740 h1         1 IZN       0.057200
     23 H101        -1.4320    -2.5250     1.9990 h1         1 IZN       0.042200
     24 H102         0.3200    -2.5090     1.8980 h1         1 IZN       0.042200
     25 H21C         1.9440    -2.9770     0.4390 hc         1 IZN       0.054700
     26 H22C         2.0950    -2.9460    -1.2970 hc         1 IZN       0.054700
     27 H3          -2.0940     1.7990     2.1160 ha         1 IZN       0.181000
     28 H71C        -3.1490     2.5960     0.0810 hc         1 IZN       0.052200
     29 H72C        -1.5290     2.7230    -0.5390 hc         1 IZN       0.052200
     30 H51C        -0.5470     0.8540    -1.9430 hc         1 IZN       0.055200
     31 H52C        -1.3620    -0.6810    -2.0600 hc         1 IZN       0.055200
     32 H6          -2.8290     1.3630    -2.0700 h1         1 IZN       0.031700
     33 H91C         0.4670    -0.3150     2.6200 hc         1 IZN       0.057700
     34 H92C        -1.2080    -0.4620     3.1390 hc         1 IZN       0.057700
     35 H15          1.5770     1.7110    -1.3690 hc         1 IZN       0.086200
     36 H151         0.8150     2.0600     0.1690 hc         1 IZN       0.086200
     37 H13          4.0010    -1.4370    -0.0950 h1         1 IZN       0.065200
     38 H131         3.6580    -0.5260    -1.5610 h1         1 IZN       0.065200
     39 H161        -5.0830     1.1050    -1.2820 h1         1 IZN       0.026367
     40 H162        -5.4090    -0.3580    -0.3390 h1         1 IZN       0.026367
     41 H163        -4.7670     1.0780     0.4630 h1         1 IZN       0.026367
@<TRIPOS>BOND
     1     1     2 1   
     2     1     5 1   
     3     1    11 1   
     4     2     3 1   
     5     2    21 1   
     6     2    22 1   
     7     3    13 1   
     8     3    25 1   
     9     3    26 1   
    10     4     8 1   
    11     4     9 2   
    12     4    27 1   
    13     5     6 1   
    14     5     9 1   
    15     5    12 1   
    16     6     7 1   
    17     6    30 1   
    18     6    31 1   
    19     7     8 1   
    20     7    19 1   
    21     7    32 1   
    22     8    28 1   
    23     8    29 1   
    24     9    10 1   
    25    10    11 1   
    26    10    33 1   
    27    10    34 1   
    28    11    23 1   
    29    11    24 1   
    30    12    13 2   
    31    12    16 1   
    32    13    14 1   
    33    14    18 1   
    34    14    37 1   
    35    14    38 1   
    36    15    16 1   
    37    15    17 2   
    38    15    18 1   
    39    16    35 1   
    40    16    36 1   
    41    19    20 1   
    42    20    39 1   
    43    20    40 1   
    44    20    41 1   
@<TRIPOS>SUBSTRUCTURE
     1 IZN         1 TEMP              0 ****  ****    0 ROOT
