@<TRIPOS>MOLECULE
IZN
   41    44     1     0     0
SMALL
No Charge or Current Charge


@<TRIPOS>ATOM
      1 N1          -0.6240    -1.6340     0.3900 n3         1 IZN      -0.708600
      2 C1          -0.0410    -2.6790    -0.4930 c6         1 IZN       0.174800
      3 C2           1.4880    -2.5010    -0.6620 c6         1 IZN      -0.071200
      4 C3          -1.8080     1.5410     1.1540 c2         1 IZN      -0.193200
      5 C4          -0.4140    -0.2130    -0.0470 c5         1 IZN       0.281600
      6 C5          -1.1830     0.1480    -1.3710 c6         1 IZN      -0.048400
      7 C6          -2.5360     0.8770    -1.1600 c6         1 IZN       0.177300
      8 C7          -2.3470     2.0570    -0.1650 c6         1 IZN      -0.078200
      9 C8          -0.9480     0.5100     1.1900 c2         1 IZN      -0.106400
     10 C9          -0.7120    -0.3530     2.4080 c5         1 IZN      -0.051200
     11 C10         -0.1780    -1.6850     1.8190 c5         1 IZN       0.173800
     12 C11          1.1080    -0.0230    -0.2560 c2         1 IZN      -0.117400
     13 C12          1.9300    -1.0430    -0.5660 c2         1 IZN      -0.160400
     14 C13          3.4070    -0.7540    -0.8060 c6         1 IZN       0.212800
     15 C14          3.0980     1.2910     0.5260 c          1 IZN       0.668100
     16 C15          1.7290     1.3650    -0.1790 c6         1 IZN      -0.156200
     17 O1           3.2640     1.8230     1.6140 o          1 IZN      -0.501000
     18 O2           3.8680     0.2030     0.1750 os         1 IZN      -0.438100
     19 O3          -3.5470    -0.0650    -0.7250 os         1 IZN      -0.435000
     20 C16         -4.9020     0.4080    -0.6240 c3         1 IZN       0.145900
     21 H11C        -0.2480    -3.6840    -0.0970 h1         1 IZN       0.057200
     22 H12C        -0.5090    -2.6420    -1.4870 h1         1 IZN       0.057200
     23 H101        -0.5800    -2.5590     2.3490 h1         1 IZN       0.042200
     24 H102         0.9170    -1.7200     1.9050 h1         1 IZN       0.042200
     25 H21C         2.0050    -3.0780     0.1160 hc         1 IZN       0.054700
     26 H22C         1.8000    -2.9310    -1.6240 hc         1 IZN       0.054700
     27 H3          -2.2700     1.9240     2.0660 ha         1 IZN       0.181000
     28 H71C        -3.2910     2.5940    -0.0110 hc         1 IZN       0.052200
     29 H72C        -1.6440     2.7890    -0.5860 hc         1 IZN       0.052200
     30 H51C        -0.5500     0.8170    -1.9680 hc         1 IZN       0.055200
     31 H52C        -1.3370    -0.7310    -2.0060 hc         1 IZN       0.055200
     32 H6          -2.8580     1.2830    -2.1300 h1         1 IZN       0.031700
     33 H91C         0.0180     0.0980     3.0890 hc         1 IZN       0.057700
     34 H92C        -1.6410    -0.5030     2.9690 hc         1 IZN       0.057700
     35 H15          1.8990     1.6820    -1.2150 hc         1 IZN       0.086200
     36 H151         1.0860     2.0840     0.3440 hc         1 IZN       0.086200
     37 H13          4.0120    -1.6680    -0.7300 h1         1 IZN       0.065200
     38 H131         3.5440    -0.3320    -1.8120 h1         1 IZN       0.065200
     39 H161        -5.2260     0.8680    -1.5670 h1         1 IZN       0.026367
     40 H162        -5.5780    -0.4270    -0.4020 h1         1 IZN       0.026367
     41 H163        -5.0060     1.1460     0.1810 h1         1 IZN       0.026367
@<TRIPOS>BOND
     1     1     2 1   
     2     1     5 1   
     3     1    11 1   
     4     2     3 1   
     5     2    21 1   
     6     2    22 1   
     7     3    13 1   
     8     3    25 1   
     9     3    26 1   
    10     4     8 1   
    11     4     9 2   
    12     4    27 1   
    13     5     6 1   
    14     5     9 1   
    15     5    12 1   
    16     6     7 1   
    17     6    30 1   
    18     6    31 1   
    19     7     8 1   
    20     7    19 1   
    21     7    32 1   
    22     8    28 1   
    23     8    29 1   
    24     9    10 1   
    25    10    11 1   
    26    10    33 1   
    27    10    34 1   
    28    11    23 1   
    29    11    24 1   
    30    12    13 2   
    31    12    16 1   
    32    13    14 1   
    33    14    18 1   
    34    14    37 1   
    35    14    38 1   
    36    15    16 1   
    37    15    17 2   
    38    15    18 1   
    39    16    35 1   
    40    16    36 1   
    41    19    20 1   
    42    20    39 1   
    43    20    40 1   
    44    20    41 1   
@<TRIPOS>SUBSTRUCTURE
     1 IZN         1 TEMP              0 ****  ****    0 ROOT
