@<TRIPOS>MOLECULE
IZO
   17    16     1     0     0
SMALL
abcg2


@<TRIPOS>ATOM
      1 N          -19.3390    41.4620     4.8620 n8         1 IZO      -0.991200
      2 CA         -18.6140    40.7870     3.7990 c3         1 IZO       0.017500
      3 C          -19.1680    39.3570     3.5760 c          1 IZO       0.727000
      4 O          -18.9590    38.8590     2.4520 o          1 IZO      -0.729500
      5 CB         -17.0960    40.6720     4.0160 c3         1 IZO      -0.095400
      6 CG         -16.3940    42.0310     4.1040 c3         1 IZO      -0.011300
      7 CD         -14.9510    41.9030     4.2610 c1         1 IZO      -0.101100
      8 CE         -13.7610    41.7790     4.3830 c1         1 IZO      -0.312000
      9 OXT        -19.7290    38.8110     4.5460 o          1 IZO      -0.729500
     10 HN1        -19.3400    40.8690     5.6830 hn         1 IZO       0.375500
     11 HN2        -18.8830    42.3280     5.1210 hn         1 IZO       0.375500
     12 HA         -18.7680    41.3540     2.8730 h1         1 IZO       0.042700
     13 HB1C       -16.9000    40.1050     4.9320 hc         1 IZO       0.050700
     14 HB2C       -16.6600    40.1050     3.1910 hc         1 IZO       0.050700
     15 HG1C       -16.6060    42.6140     3.2030 hc         1 IZO       0.046200
     16 HG2C       -16.7840    42.6100     4.9450 hc         1 IZO       0.046200
     17 HE         -12.7070    41.6670     4.4980 ha         1 IZO       0.239000
@<TRIPOS>BOND
     1     1     2 1   
     2     1    10 1   
     3     1    11 1   
     4     2     3 1   
     5     2     5 1   
     6     2    12 1   
     7     3     4 1   
     8     3     9 1   
     9     5     6 1   
    10     5    13 1   
    11     5    14 1   
    12     6     7 1   
    13     6    15 1   
    14     6    16 1   
    15     7     8 3   
    16     8    17 1   
@<TRIPOS>SUBSTRUCTURE
     1 IZO         1 TEMP              0 ****  ****    0 ROOT
