@<TRIPOS>MOLECULE
IZO
   17    16     1     0     0
SMALL
No Charge or Current Charge


@<TRIPOS>ATOM
      1 N          -19.3440    41.5240     4.8550 n8         1 IZO      -0.991200
      2 CA         -18.6220    40.7330     3.7920 c3         1 IZO       0.017500
      3 C          -19.1900    39.2830     3.4840 c          1 IZO       0.727000
      4 O          -19.6230    39.0540     2.3610 o          1 IZO      -0.729500
      5 CB         -17.1020    40.6730     4.1040 c3         1 IZO      -0.095400
      6 CG         -16.3840    42.0460     4.0710 c3         1 IZO      -0.011300
      7 CD         -14.9360    41.9280     4.2910 c1         1 IZO      -0.101100
      8 CE         -13.7440    41.8080     4.4550 c1         1 IZO      -0.312000
      9 OXT        -19.2330    38.4640     4.3950 o          1 IZO      -0.729500
     10 HN1        -19.3260    40.9890     5.7320 hn         1 IZO       0.375500
     11 HN2        -18.8080    42.3720     5.0700 hn         1 IZO       0.375500
     12 HA         -18.7300    41.3000     2.8560 h1         1 IZO       0.042700
     13 HB1C       -16.9460    40.1970     5.0800 hc         1 IZO       0.050700
     14 HB2C       -16.6280    40.0180     3.3610 hc         1 IZO       0.050700
     15 HG1C       -16.5550    42.5270     3.1000 hc         1 IZO       0.046200
     16 HG2C       -16.8000    42.7090     4.8380 hc         1 IZO       0.046200
     17 HE         -12.6880    41.6890     4.6000 ha         1 IZO       0.239000
@<TRIPOS>BOND
     1     1     2 1   
     2     1    10 1   
     3     1    11 1   
     4     2     3 1   
     5     2     5 1   
     6     2    12 1   
     7     3     4 1   
     8     3     9 1   
     9     5     6 1   
    10     5    13 1   
    11     5    14 1   
    12     6     7 1   
    13     6    15 1   
    14     6    16 1   
    15     7     8 3   
    16     8    17 1   
@<TRIPOS>SUBSTRUCTURE
     1 IZO         1 TEMP              0 ****  ****    0 ROOT
