@<TRIPOS>MOLECULE
IZP
   32    32     1     0     0
SMALL
abcg2


@<TRIPOS>ATOM
      1 C1           3.6030     0.3820     0.1740 c          1 IZP       0.725000
      2 O1           4.8020     0.0370     0.1850 o          1 IZP      -0.725000
      3 C2          -3.0140     0.8320     0.4570 c3         1 IZP      -0.015100
      4 O2           3.1630     1.5420     0.2720 o          1 IZP      -0.725000
      5 C3          -3.9390     0.0610    -0.4960 c3         1 IZP      -0.060700
      6 C4          -3.8810    -1.4410    -0.2450 c3         1 IZP      -0.084100
      7 C5          -5.3680     0.5780    -0.3670 c3         1 IZP      -0.084100
      8 C6           2.5830    -0.7790     0.0220 c3         1 IZP      -0.173400
      9 C7           2.8480    -1.5480    -1.2770 c3         1 IZP      -0.055100
     10 C8           1.1490    -0.3420     0.1340 ca         1 IZP       0.012700
     11 C9           0.5310     0.4230    -0.8570 ca         1 IZP      -0.107000
     12 C10         -0.7980     0.7990    -0.7480 ca         1 IZP      -0.116000
     13 C11         -1.5680     0.4360     0.3590 ca         1 IZP      -0.120300
     14 C12         -0.9520    -0.3210     1.3480 ca         1 IZP      -0.116000
     15 C13          0.3800    -0.7030     1.2340 ca         1 IZP      -0.107000
     16 H2          -3.1150     1.9020     0.2490 hc         1 IZP       0.033700
     17 H2A         -3.3650     0.6840     1.4840 hc         1 IZP       0.033700
     18 H3          -3.5980     0.2520    -1.5200 hc         1 IZP       0.046700
     19 H4          -2.8770    -1.8380    -0.3950 hc         1 IZP       0.027200
     20 H4A         -4.1820    -1.6770     0.7780 hc         1 IZP       0.027200
     21 H4B         -4.5530    -1.9760    -0.9190 hc         1 IZP       0.027200
     22 H5          -5.4280     1.6490    -0.5690 hc         1 IZP       0.027200
     23 H5A         -6.0370     0.0730    -1.0650 hc         1 IZP       0.027200
     24 H5B         -5.7530     0.4090     0.6420 hc         1 IZP       0.027200
     25 H6           2.7770    -1.4740     0.8470 hc         1 IZP       0.035700
     26 H7           3.8560    -1.9580    -1.2790 hc         1 IZP       0.015700
     27 H7A          2.1460    -2.3750    -1.3940 hc         1 IZP       0.015700
     28 H7B          2.7520    -0.9070    -2.1550 hc         1 IZP       0.015700
     29 H9           1.0920     0.7330    -1.7300 ha         1 IZP       0.108500
     30 H10         -1.2480     1.3930    -1.5370 ha         1 IZP       0.087000
     31 H12         -1.5200    -0.6230     2.2210 ha         1 IZP       0.087000
     32 H13          0.8300    -1.2940     2.0250 ha         1 IZP       0.108500
@<TRIPOS>BOND
     1     1     2 1   
     2     1     4 1   
     3     1     8 1   
     4     3     5 1   
     5     3    13 1   
     6     3    16 1   
     7     3    17 1   
     8     5     6 1   
     9     5     7 1   
    10     5    18 1   
    11     6    19 1   
    12     6    20 1   
    13     6    21 1   
    14     7    22 1   
    15     7    23 1   
    16     7    24 1   
    17     8     9 1   
    18     8    10 1   
    19     8    25 1   
    20     9    26 1   
    21     9    27 1   
    22     9    28 1   
    23    10    11 ar  
    24    10    15 ar  
    25    11    12 ar  
    26    11    29 1   
    27    12    13 ar  
    28    12    30 1   
    29    13    14 ar  
    30    14    15 ar  
    31    14    31 1   
    32    15    32 1   
@<TRIPOS>SUBSTRUCTURE
     1 IZP         1 TEMP              0 ****  ****    0 ROOT
