@<TRIPOS>MOLECULE
IZP
   32    32     1     0     0
SMALL
No Charge or Current Charge


@<TRIPOS>ATOM
      1 C1           3.5790     0.3140     0.3310 c          1 IZP       0.725000
      2 O1           4.2750     0.1590     1.3240 o          1 IZP      -0.725000
      3 C2          -3.0100     0.8310     0.5010 c3         1 IZP      -0.015100
      4 O2           3.5950     1.3330    -0.3450 o          1 IZP      -0.725000
      5 C3          -3.9780     0.0490    -0.4260 c3         1 IZP      -0.060700
      6 C4          -3.9680    -1.4710    -0.1370 c3         1 IZP      -0.084100
      7 C5          -5.4120     0.6190    -0.3490 c3         1 IZP      -0.084100
      8 C6           2.6180    -0.8300    -0.0660 c3         1 IZP      -0.173400
      9 C7           2.9610    -1.4150    -1.4590 c3         1 IZP      -0.055100
     10 C8           1.1560    -0.3860     0.0660 ca         1 IZP       0.012700
     11 C9           0.5210     0.3750    -0.9380 ca         1 IZP      -0.107000
     12 C10         -0.8210     0.7670    -0.7950 ca         1 IZP      -0.116000
     13 C11         -1.5520     0.4070     0.3520 ca         1 IZP      -0.120300
     14 C12         -0.9200    -0.3460     1.3590 ca         1 IZP      -0.116000
     15 C13          0.4220    -0.7380     1.2160 ca         1 IZP      -0.107000
     16 H2          -3.0940     1.9020     0.2790 hc         1 IZP       0.033700
     17 H2A         -3.3370     0.7150     1.5410 hc         1 IZP       0.033700
     18 H3          -3.6330     0.1870    -1.4590 hc         1 IZP       0.046700
     19 H4          -2.9680    -1.8940    -0.2890 hc         1 IZP       0.027200
     20 H4A         -4.2740    -1.6730     0.8960 hc         1 IZP       0.027200
     21 H4B         -4.6570    -1.9970    -0.8080 hc         1 IZP       0.027200
     22 H5          -5.4210     1.6840    -0.6120 hc         1 IZP       0.027200
     23 H5A         -6.0760     0.0940    -1.0460 hc         1 IZP       0.027200
     24 H5B         -5.8210     0.5120     0.6630 hc         1 IZP       0.027200
     25 H6           2.7830    -1.6460     0.6490 hc         1 IZP       0.035700
     26 H7           3.9790    -1.8220    -1.4590 hc         1 IZP       0.015700
     27 H7A          2.2700    -2.2260    -1.7160 hc         1 IZP       0.015700
     28 H7B          2.9050    -0.6520    -2.2440 hc         1 IZP       0.015700
     29 H9           1.0660     0.6740    -1.8290 ha         1 IZP       0.108500
     30 H10         -1.2940     1.3550    -1.5790 ha         1 IZP       0.087000
     31 H12         -1.4690    -0.6330     2.2530 ha         1 IZP       0.087000
     32 H13          0.8920    -1.3200     2.0050 ha         1 IZP       0.108500
@<TRIPOS>BOND
     1     1     2 1   
     2     1     4 1   
     3     1     8 1   
     4     3     5 1   
     5     3    13 1   
     6     3    16 1   
     7     3    17 1   
     8     5     6 1   
     9     5     7 1   
    10     5    18 1   
    11     6    19 1   
    12     6    20 1   
    13     6    21 1   
    14     7    22 1   
    15     7    23 1   
    16     7    24 1   
    17     8     9 1   
    18     8    10 1   
    19     8    25 1   
    20     9    26 1   
    21     9    27 1   
    22     9    28 1   
    23    10    11 ar  
    24    10    15 ar  
    25    11    12 ar  
    26    11    29 1   
    27    12    13 ar  
    28    12    30 1   
    29    13    14 ar  
    30    14    15 ar  
    31    14    31 1   
    32    15    32 1   
@<TRIPOS>SUBSTRUCTURE
     1 IZP         1 TEMP              0 ****  ****    0 ROOT
