@<TRIPOS>MOLECULE
IZQ
   37    40     1     0     0
SMALL
bcc


@<TRIPOS>ATOM
      1 C1          94.1110    -8.5960    12.1450 ca         1 IZQ      -0.242300
      2 C2          94.2520    -7.2770    12.5980 ca         1 IZQ       0.657600
      3 N3          93.5560    -6.7950    13.6020 nb         1 IZQ      -0.744000
      4 C4          93.1990    -9.4030    12.7810 ca         1 IZQ      -0.096000
      5 O5          95.1370    -6.5060    11.9710 os         1 IZQ      -0.429100
      6 C6          95.2360    -5.1440    12.3640 c3         1 IZQ       0.132700
      7 C7          92.4500    -8.9000    13.8460 ca         1 IZQ      -0.079700
      8 C8          92.6830    -7.5790    14.2040 ca         1 IZQ       0.513800
      9 C9          90.7830    -9.2460    15.5830 c          1 IZQ       0.762100
     10 N10         91.5220    -9.6750    14.5210 ns         1 IZQ      -0.458100
     11 O11         89.9820    -9.9630    16.1600 o          1 IZQ      -0.605500
     12 C12         91.0400    -7.8710    15.9620 cc         1 IZQ      -0.307200
     13 N13         91.9450    -7.0770    15.2770 na         1 IZQ      -0.184700
     14 C14         91.9480    -5.8690    15.8930 cc         1 IZQ       0.515000
     15 N15         91.1160    -5.8660    16.9110 nd         1 IZQ      -0.674000
     16 C16         90.5380    -7.0910    16.9740 cd         1 IZQ       0.416600
     17 C17         89.5280    -7.4380    18.0090 c3         1 IZQ      -0.121400
     18 C18         92.7620    -4.7000    15.5300 ca         1 IZQ      -0.103500
     19 C19         93.7890    -4.2950    16.3760 ca         1 IZQ      -0.081000
     20 C20         94.5300    -3.1560    16.0980 ca         1 IZQ      -0.135000
     21 C21         94.2360    -2.4000    14.9730 ca         1 IZQ      -0.111000
     22 C22         93.2040    -2.7790    14.1260 ca         1 IZQ      -0.136000
     23 C23         92.4790    -3.9230    14.4110 ca         1 IZQ       0.064400
     24 CL24        91.1970    -4.3990    13.3530 cl         1 IZQ      -0.098400
     25 H1          94.7010    -8.9640    11.3180 ha         1 IZQ       0.165000
     26 H2          93.0590   -10.4280    12.4610 ha         1 IZQ       0.149000
     27 H3          96.0200    -4.7120    11.7470 h1         1 IZQ       0.050700
     28 H4          94.3020    -4.6110    12.1890 h1         1 IZQ       0.050700
     29 H5          95.5050    -5.0400    13.4160 h1         1 IZQ       0.050700
     30 H6          91.3880   -10.6310    14.2190 hn         1 IZQ       0.334500
     31 H7          89.4000    -6.6040    18.6950 hc         1 IZQ       0.057700
     32 H8          88.5600    -7.6640    17.5620 hc         1 IZQ       0.057700
     33 H9          89.8290    -8.3130    18.5840 hc         1 IZQ       0.057700
     34 H10         94.0110    -4.8850    17.2560 ha         1 IZQ       0.147000
     35 H11         95.3320    -2.8600    16.7600 ha         1 IZQ       0.139000
     36 H12         94.8060    -1.5080    14.7490 ha         1 IZQ       0.136000
     37 H13         92.9660    -2.1890    13.2510 ha         1 IZQ       0.148000
@<TRIPOS>BOND
     1     1     2 ar  
     2     1     4 ar  
     3     1    25 1   
     4     2     3 ar  
     5     2     5 1   
     6     3     8 ar  
     7     4     7 ar  
     8     4    26 1   
     9     5     6 1   
    10     6    27 1   
    11     6    28 1   
    12     6    29 1   
    13     7     8 ar  
    14     7    10 1   
    15     8    13 1   
    16     9    10 1   
    17     9    11 2   
    18     9    12 1   
    19    10    30 1   
    20    12    13 1   
    21    12    16 2   
    22    13    14 1   
    23    14    15 2   
    24    14    18 1   
    25    15    16 1   
    26    16    17 1   
    27    17    31 1   
    28    17    32 1   
    29    17    33 1   
    30    18    19 ar  
    31    18    23 ar  
    32    19    20 ar  
    33    19    34 1   
    34    20    21 ar  
    35    20    35 1   
    36    21    22 ar  
    37    21    36 1   
    38    22    23 ar  
    39    22    37 1   
    40    23    24 1   
@<TRIPOS>SUBSTRUCTURE
     1 IZQ         1 TEMP              0 ****  ****    0 ROOT
