@<TRIPOS>MOLECULE
IZQ
   37    40     1     0     0
SMALL
No Charge or Current Charge


@<TRIPOS>ATOM
      1 C1          94.0740    -8.5750    12.1210 ca         1 IZQ      -0.159000
      2 C2          94.2960    -7.2760    12.5970 ca         1 IZQ       0.592300
      3 N3          93.6070    -6.7530    13.6300 nb         1 IZQ      -0.744000
      4 C4          93.1020    -9.3780    12.7350 ca         1 IZQ      -0.078000
      5 O5          95.2640    -6.5200    11.9770 os         1 IZQ      -0.452300
      6 C6          95.5040    -5.1530    12.3690 c3         1 IZQ       0.155900
      7 C7          92.3820    -8.8370    13.8100 ca         1 IZQ      -0.014400
      8 C8          92.6510    -7.4940    14.2360 ca         1 IZQ       0.448500
      9 C9          90.6760    -9.2680    15.5920 c          1 IZQ       0.619600
     10 N10         91.4080    -9.6380    14.4870 ns         1 IZQ      -0.391100
     11 O11         89.8870   -10.0070    16.1550 o          1 IZQ      -0.530000
     12 C12         91.0040    -7.8890    15.9640 cc         1 IZQ      -0.292600
     13 N13         91.8730    -7.0510    15.3150 na         1 IZQ      -0.134000
     14 C14         91.9180    -5.8380    15.9590 cc         1 IZQ       0.515000
     15 N15         91.1240    -5.8920    17.0260 nd         1 IZQ      -0.674000
     16 C16         90.5430    -7.1540    17.0240 cd         1 IZQ       0.351300
     17 C17         89.5700    -7.5610    18.0930 c3         1 IZQ      -0.121400
     18 C18         92.6930    -4.6600    15.5760 ca         1 IZQ      -0.103500
     19 C19         93.7360    -4.2080    16.4100 ca         1 IZQ      -0.063000
     20 C20         94.4940    -3.0800    16.0520 ca         1 IZQ      -0.117000
     21 C21         94.2080    -2.3860    14.8650 ca         1 IZQ      -0.093000
     22 C22         93.1560    -2.8180    14.0400 ca         1 IZQ      -0.118000
     23 C23         92.3990    -3.9490    14.3920 ca         1 IZQ       0.156000
     24 Cl24        91.0570    -4.4250    13.3500 cl         1 IZQ      -0.190000
     25 H1          94.6590    -8.9480    11.2870 ha         1 IZQ       0.147000
     26 H2          92.9210   -10.3940    12.3880 ha         1 IZQ       0.131000
     27 H3          96.3160    -4.7210    11.7710 h1         1 IZQ       0.050700
     28 H4          94.6060    -4.5400    12.2170 h1         1 IZQ       0.050700
     29 H5          95.7910    -5.0910    13.4270 h1         1 IZQ       0.050700
     30 H6          91.2520   -10.5800    14.1490 hn         1 IZQ       0.334500
     31 H7          89.4030    -6.7500    18.8120 hc         1 IZQ       0.057700
     32 H8          88.6020    -7.8280    17.6560 hc         1 IZQ       0.057700
     33 H9          89.9430    -8.4290    18.6480 hc         1 IZQ       0.057700
     34 H10         93.9640    -4.7390    17.3320 ha         1 IZQ       0.129000
     35 H11         95.3030    -2.7430    16.6970 ha         1 IZQ       0.121000
     36 H12         94.7940    -1.5110    14.5890 ha         1 IZQ       0.118000
     37 H13         92.9230    -2.2740    13.1280 ha         1 IZQ       0.130000
@<TRIPOS>BOND
     1     1     2 ar  
     2     1     4 ar  
     3     1    25 1   
     4     2     3 ar  
     5     2     5 1   
     6     3     8 ar  
     7     4     7 ar  
     8     4    26 1   
     9     5     6 1   
    10     6    27 1   
    11     6    28 1   
    12     6    29 1   
    13     7     8 ar  
    14     7    10 1   
    15     8    13 1   
    16     9    10 1   
    17     9    11 2   
    18     9    12 1   
    19    10    30 1   
    20    12    13 1   
    21    12    16 2   
    22    13    14 1   
    23    14    15 2   
    24    14    18 1   
    25    15    16 1   
    26    16    17 1   
    27    17    31 1   
    28    17    32 1   
    29    17    33 1   
    30    18    19 ar  
    31    18    23 ar  
    32    19    20 ar  
    33    19    34 1   
    34    20    21 ar  
    35    20    35 1   
    36    21    22 ar  
    37    21    36 1   
    38    22    23 ar  
    39    22    37 1   
    40    23    24 1   
@<TRIPOS>SUBSTRUCTURE
     1 IZQ         1 TEMP              0 ****  ****    0 ROOT
