@<TRIPOS>MOLECULE
IZR
  128   135     1     0     0
SMALL
No Charge or Current Charge


@<TRIPOS>ATOM
      1 CCA        -49.8540    11.4030    19.0200 c3         1 IZR      -0.121400
      2 CBZ        -50.0370    11.8830    17.6050 cc         1 IZR       0.298300
      3 NCB        -49.2950    12.9820    17.2480 nc         1 IZR      -0.637000
      4 CCC        -49.5050    13.2990    15.9780 cd         1 IZR       0.418300
      5 SCD        -50.6200    12.2570    15.1140 ss         1 IZR      -0.046400
      6 CBY        -50.8180    11.3300    16.6000 cd         1 IZR      -0.172000
      7 CBX        -51.8210    10.2310    16.6600 ca         1 IZR      -0.007000
      8 CCE        -52.2720     9.6300    15.4610 ca         1 IZR      -0.093500
      9 CCF        -53.2180     8.5910    15.4770 ca         1 IZR      -0.100000
     10 CBW        -52.3720     9.7630    17.8750 ca         1 IZR      -0.093500
     11 CBV        -53.3200     8.7250    17.8910 ca         1 IZR      -0.100000
     12 CBU        -53.7450     8.1280    16.6930 ca         1 IZR      -0.089300
     13 CBT        -54.7780     7.0110    16.7120 c3         1 IZR       0.155300
     14 NBS        -56.1360     7.5430    16.6040 ns         1 IZR      -0.496900
     15 CBR        -56.9210     7.8940    17.6810 c          1 IZR       0.595100
     16 OCG        -56.5600     7.7600    18.8430 o          1 IZR      -0.608100
     17 CBQ        -58.2710     8.4850    17.1690 c5         1 IZR       0.033700
     18 CBP        -58.1090    10.0320    17.0870 c5         1 IZR      -0.079400
     19 CBN        -59.5770    10.5140    17.0310 c5         1 IZR       0.152300
     20 OBO        -60.1450    10.2940    15.7340 oh         1 IZR      -0.655000
     21 CBM        -60.2380     9.6250    18.1290 c5         1 IZR       0.076000
     22 NBL        -59.4300     8.3750    18.1010 n          1 IZR      -0.389800
     23 C          -59.9430     7.1160    18.5040 c          1 IZR       0.593100
     24 O          -59.4590     6.0900    18.0360 o          1 IZR      -0.603100
     25 CA         -61.1100     7.0580    19.5460 c3         1 IZR       0.054700
     26 N          -61.9680     5.8810    19.2560 ns         1 IZR      -0.467900
     27 CBE        -63.3400     5.9120    19.1350 c          1 IZR       0.619100
     28 OBJ        -63.9810     6.9530    19.2270 o          1 IZR      -0.617100
     29 CBF        -63.9910     4.5570    18.8720 cx         1 IZR       0.028000
     30 FBG        -64.0340     3.7370    19.9650 f          1 IZR      -0.231000
     31 CBH        -65.1440     4.4840    17.8920 cx         1 IZR      -0.114400
     32 CBI        -63.7970     3.9210    17.5110 cx         1 IZR      -0.114400
     33 CB         -60.6590     7.0940    21.0540 c3         1 IZR       0.113000
     34 CG2        -59.7190     8.2870    21.3780 c3         1 IZR      -0.088600
     35 CG1        -61.9030     7.2280    21.9710 c3         1 IZR      -0.088600
     36 SAY        -59.8850     5.4570    21.5450 ss         1 IZR      -0.480000
     37 CAX        -58.0920     5.6110    21.0690 c3         1 IZR       0.081600
     38 CAW        -57.2030     5.9980    22.2780 c3         1 IZR      -0.067400
     39 CAV        -57.0920     4.9120    23.3770 c3         1 IZR      -0.079400
     40 CAU        -56.1610     3.7320    23.0130 c3         1 IZR      -0.073400
     41 CAT        -56.2380     2.5770    24.0350 c3         1 IZR      -0.099400
     42 CAS        -55.2170     1.4530    23.7680 c3         1 IZR       0.102000
     43 NAR        -55.6330     0.2050    24.4030 ns         1 IZR      -0.491900
     44 CAQ        -55.0680    -1.0230    24.1420 c          1 IZR       0.599100
     45 OCI        -53.9950    -1.1400    23.5640 o          1 IZR      -0.623100
     46 CAP        -55.8850    -2.2230    24.6250 c3         1 IZR      -0.129400
     47 CAO        -56.6310    -2.8780    23.4350 c3         1 IZR       0.100200
     48 NAN        -57.4190    -1.8320    22.7600 n2         1 IZR      -0.587900
     49 CCJ        -57.5350    -4.0480    23.8110 cc         1 IZR       0.397800
     50 NCK        -57.5170    -4.7260    24.9530 nd         1 IZR      -0.339000
     51 NCL        -58.4320    -5.7600    24.8600 nd         1 IZR      -0.353000
     52 CCM        -58.9830    -5.7240    23.6560 cc         1 IZR       0.416800
     53 CCN        -60.0740    -6.6470    23.1850 c3         1 IZR      -0.128400
     54 NCO        -58.5160    -4.6000    23.0140 na         1 IZR      -0.268800
     55 CCP        -58.3280    -4.5950    21.6200 cc         1 IZR      -0.115200
     56 SCQ        -58.1930    -6.0250    20.6200 ss         1 IZR       0.234000
     57 CAB        -57.6990    -4.9960    19.2790 cc         1 IZR      -0.199300
     58 CAA        -57.3820    -5.6080    17.9380 c3         1 IZR      -0.021800
     59 CAC        -57.6280    -3.6590    19.6340 cd         1 IZR      -0.058300
     60 CAD        -57.1730    -2.5750    18.6840 c3         1 IZR      -0.032800
     61 CAE        -58.0130    -3.4040    20.9990 cd         1 IZR      -0.203900
     62 CAF        -58.0310    -2.0730    21.6420 cf         1 IZR       0.559500
     63 CAG        -58.7470    -0.9390    20.9990 ca         1 IZR      -0.138900
     64 CAH        -59.8390    -1.1740    20.1310 ca         1 IZR      -0.070500
     65 CAI        -60.5110    -0.1000    19.5200 ca         1 IZR      -0.112500
     66 CAJ        -60.1150     1.2200    19.7860 ca         1 IZR       0.137000
     67 ClAK       -60.9320     2.5640    19.0040 cl         1 IZR      -0.193000
     68 CAL        -59.0610     1.4710    20.6740 ca         1 IZR      -0.112500
     69 CAM        -58.3840     0.4010    21.2800 ca         1 IZR      -0.070500
     70 H1         -48.9110    11.7680    19.4460 hc         1 IZR       0.052700
     71 H2         -50.6640    11.7620    19.6640 hc         1 IZR       0.052700
     72 H3         -49.8210    10.3090    19.0640 hc         1 IZR       0.052700
     73 H4         -49.0380    14.1280    15.4610 h5         1 IZR       0.053100
     74 H5         -51.8810     9.9470    14.4990 ha         1 IZR       0.118000
     75 H6         -53.5410     8.1460    14.5380 ha         1 IZR       0.113500
     76 H7         -52.1110    10.2130    18.8240 ha         1 IZR       0.118000
     77 H8         -53.7330     8.3920    18.8410 ha         1 IZR       0.113500
     78 H9         -54.6830     6.4270    17.6370 h1         1 IZR       0.061700
     79 H10        -54.5990     6.3280    15.8710 h1         1 IZR       0.061700
     80 H11        -56.5170     7.7020    15.6790 hn         1 IZR       0.323500
     81 H12        -58.5210     8.0480    16.1930 h1         1 IZR       0.081700
     82 H13        -57.5240    10.3500    16.2170 hc         1 IZR       0.073200
     83 H14        -57.6070    10.4300    17.9780 hc         1 IZR       0.073200
     84 H15        -59.6510    11.5800    17.2900 h1         1 IZR       0.054700
     85 H16        -61.0330    10.7160    15.7320 ho         1 IZR       0.450000
     86 H17        -60.1680    10.1110    19.1100 h1         1 IZR       0.060700
     87 H18        -61.2980     9.4460    17.9080 h1         1 IZR       0.060700
     88 H19        -61.7180     7.9520    19.3810 h1         1 IZR       0.074700
     89 H20        -61.5240     4.9720    19.1850 hn         1 IZR       0.355500
     90 H21        -65.4650     5.4040    17.4070 hc         1 IZR       0.093200
     91 H22        -65.9470     3.7820    18.1060 hc         1 IZR       0.093200
     92 H23        -63.6940     2.8390    17.4680 hc         1 IZR       0.093200
     93 H24        -63.2100     4.4630    16.7730 hc         1 IZR       0.093200
     94 H25        -59.4240     8.2720    22.4330 hc         1 IZR       0.051533
     95 H26        -58.8090     8.2920    20.7710 hc         1 IZR       0.051533
     96 H27        -60.2360     9.2380    21.2050 hc         1 IZR       0.051533
     97 H28        -61.6070     7.2900    23.0250 hc         1 IZR       0.051533
     98 H29        -62.4760     8.1320    21.7270 hc         1 IZR       0.051533
     99 H30        -62.5710     6.3650    21.8700 hc         1 IZR       0.051533
    100 H31        -57.7510     4.6530    20.6590 h1         1 IZR       0.079200
    101 H32        -57.9840     6.3500    20.2730 h1         1 IZR       0.079200
    102 H33        -56.1970     6.2400    21.9130 hc         1 IZR       0.050200
    103 H34        -57.5900     6.9160    22.7300 hc         1 IZR       0.050200
    104 H35        -56.7120     5.3810    24.2930 hc         1 IZR       0.046700
    105 H36        -58.0930     4.5330    23.6200 hc         1 IZR       0.046700
    106 H37        -56.4250     3.3420    22.0220 hc         1 IZR       0.039200
    107 H38        -55.1280     4.0970    22.9490 hc         1 IZR       0.039200
    108 H39        -56.0880     2.9630    25.0510 hc         1 IZR       0.046700
    109 H40        -57.2530     2.1610    23.9990 hc         1 IZR       0.046700
    110 H41        -55.1430     1.2760    22.6860 h1         1 IZR       0.050700
    111 H42        -54.2250     1.7450    24.1390 h1         1 IZR       0.050700
    112 H43        -56.5220     0.1930    24.8870 hn         1 IZR       0.315500
    113 H44        -56.6270    -1.9010    25.3650 hc         1 IZR       0.080700
    114 H45        -55.2070    -2.9620    25.0660 hc         1 IZR       0.080700
    115 H46        -55.8700    -3.2730    22.7470 h1         1 IZR       0.086700
    116 H47        -60.7430    -6.9070    24.0130 hc         1 IZR       0.065033
    117 H48        -60.6800    -6.1770    22.4020 hc         1 IZR       0.065033
    118 H49        -59.6520    -7.5770    22.7890 hc         1 IZR       0.065033
    119 H50        -57.6870    -6.6610    17.8980 hc         1 IZR       0.051700
    120 H51        -57.9030    -5.0790    17.1320 hc         1 IZR       0.051700
    121 H52        -56.3060    -5.5630    17.7340 hc         1 IZR       0.051700
    122 H53        -58.0160    -2.1780    18.1070 hc         1 IZR       0.051700
    123 H54        -56.7030    -1.7390    19.2150 hc         1 IZR       0.051700
    124 H55        -56.4310    -2.9520    17.9700 hc         1 IZR       0.051700
    125 H56        -60.1630    -2.1910    19.9170 ha         1 IZR       0.127500
    126 H57        -61.3370    -0.2900    18.8400 ha         1 IZR       0.134000
    127 H58        -58.7660     2.4930    20.8880 ha         1 IZR       0.134000
    128 H59        -57.5600     0.6200    21.9550 ha         1 IZR       0.127500
@<TRIPOS>BOND
     1     1     2 1   
     2     1    70 1   
     3     1    71 1   
     4     1    72 1   
     5     2     3 1   
     6     2     6 2   
     7     3     4 2   
     8     4     5 1   
     9     4    73 1   
    10     5     6 1   
    11     6     7 1   
    12     7     8 ar  
    13     7    10 ar  
    14     8     9 ar  
    15     8    74 1   
    16     9    12 ar  
    17     9    75 1   
    18    10    11 ar  
    19    10    76 1   
    20    11    12 ar  
    21    11    77 1   
    22    12    13 1   
    23    13    14 1   
    24    13    78 1   
    25    13    79 1   
    26    14    15 1   
    27    14    80 1   
    28    15    16 2   
    29    15    17 1   
    30    17    18 1   
    31    17    22 1   
    32    17    81 1   
    33    18    19 1   
    34    18    82 1   
    35    18    83 1   
    36    19    20 1   
    37    19    21 1   
    38    19    84 1   
    39    20    85 1   
    40    21    22 1   
    41    21    86 1   
    42    21    87 1   
    43    22    23 1   
    44    23    24 2   
    45    23    25 1   
    46    25    26 1   
    47    25    33 1   
    48    25    88 1   
    49    26    27 1   
    50    26    89 1   
    51    27    28 2   
    52    27    29 1   
    53    29    30 1   
    54    29    31 1   
    55    29    32 1   
    56    31    32 1   
    57    31    90 1   
    58    31    91 1   
    59    32    92 1   
    60    32    93 1   
    61    33    34 1   
    62    33    35 1   
    63    33    36 1   
    64    34    94 1   
    65    34    95 1   
    66    34    96 1   
    67    35    97 1   
    68    35    98 1   
    69    35    99 1   
    70    36    37 1   
    71    37    38 1   
    72    37   100 1   
    73    37   101 1   
    74    38    39 1   
    75    38   102 1   
    76    38   103 1   
    77    39    40 1   
    78    39   104 1   
    79    39   105 1   
    80    40    41 1   
    81    40   106 1   
    82    40   107 1   
    83    41    42 1   
    84    41   108 1   
    85    41   109 1   
    86    42    43 1   
    87    42   110 1   
    88    42   111 1   
    89    43    44 1   
    90    43   112 1   
    91    44    45 2   
    92    44    46 1   
    93    46    47 1   
    94    46   113 1   
    95    46   114 1   
    96    47    48 1   
    97    47    49 1   
    98    47   115 1   
    99    48    62 2   
   100    49    50 2   
   101    49    54 1   
   102    50    51 1   
   103    51    52 2   
   104    52    53 1   
   105    52    54 1   
   106    53   116 1   
   107    53   117 1   
   108    53   118 1   
   109    54    55 1   
   110    55    56 1   
   111    55    61 2   
   112    56    57 1   
   113    57    58 1   
   114    57    59 2   
   115    58   119 1   
   116    58   120 1   
   117    58   121 1   
   118    59    60 1   
   119    59    61 1   
   120    60   122 1   
   121    60   123 1   
   122    60   124 1   
   123    61    62 1   
   124    62    63 1   
   125    63    64 ar  
   126    63    69 ar  
   127    64    65 ar  
   128    64   125 1   
   129    65    66 ar  
   130    65   126 1   
   131    66    67 1   
   132    66    68 ar  
   133    68    69 ar  
   134    68   127 1   
   135    69   128 1   
@<TRIPOS>SUBSTRUCTURE
     1 IZR         1 TEMP              0 ****  ****    0 ROOT
