@<TRIPOS>MOLECULE
IZR
  128   135     1     0     0
SMALL
abcg2


@<TRIPOS>ATOM
      1 CCA        -48.9880     8.6490    17.7410 c3         1 IZR      -0.121400
      2 CBZ        -49.6770     9.9680    17.5870 cc         1 IZR       0.298300
      3 NCB        -48.9070    11.1100    17.5280 nc         1 IZR      -0.637000
      4 CCC        -49.6360    12.1760    17.3680 cd         1 IZR       0.418300
      5 SCD        -51.3270    11.8810    17.2740 ss         1 IZR      -0.046400
      6 CBY        -51.0320    10.1790    17.4680 cd         1 IZR      -0.172000
      7 CBX        -52.1390     9.2190    17.4860 ca         1 IZR      -0.007000
      8 CCE        -53.2390     9.3720    16.6340 ca         1 IZR      -0.093500
      9 CCF        -54.2940     8.4710    16.6590 ca         1 IZR      -0.100000
     10 CBW        -52.1410     8.1350    18.3730 ca         1 IZR      -0.093500
     11 CBV        -53.1980     7.2360    18.3920 ca         1 IZR      -0.100000
     12 CBU        -54.2870     7.3890    17.5360 ca         1 IZR      -0.089300
     13 CBT        -55.4060     6.3700    17.5610 c3         1 IZR       0.155300
     14 NBS        -56.6790     6.8770    17.0840 ns         1 IZR      -0.496900
     15 CBR        -57.4330     7.7190    17.8070 c          1 IZR       0.595100
     16 OCG        -57.1130     8.1180    18.9240 o          1 IZR      -0.608100
     17 CBQ        -58.6970     8.2190    17.1120 c5         1 IZR       0.033700
     18 CBP        -58.5160     9.6550    16.5910 c5         1 IZR      -0.079400
     19 CBN        -59.8910    10.2850    16.7650 c5         1 IZR       0.152300
     20 OBO        -60.7050     9.8640    15.6690 oh         1 IZR      -0.655000
     21 CBM        -60.3640     9.6880    18.0880 c5         1 IZR       0.076000
     22 NBL        -59.8120     8.3280    18.0550 n          1 IZR      -0.389800
     23 C          -60.2870     7.2110    18.6340 c          1 IZR       0.593100
     24 O          -59.8170     6.1050    18.3640 o          1 IZR      -0.603100
     25 CA         -61.4280     7.3450    19.6550 c3         1 IZR       0.054700
     26 N          -62.3480     6.2400    19.4950 ns         1 IZR      -0.467900
     27 CBE        -63.1340     6.1380    18.4140 c          1 IZR       0.619100
     28 OBJ        -63.1810     6.9840    17.5200 o          1 IZR      -0.617100
     29 CBF        -63.9710     4.8990    18.3380 cx         1 IZR       0.028000
     30 FBG        -63.9430     4.1430    19.5010 f          1 IZR      -0.231000
     31 CBH        -65.2520     4.8940    17.5710 cx         1 IZR      -0.114400
     32 CBI        -64.0550     4.1400    17.0510 cx         1 IZR      -0.114400
     33 CB         -60.9620     7.4430    21.1390 c3         1 IZR       0.113000
     34 CG2        -60.0300     8.6360    21.3310 c3         1 IZR      -0.088600
     35 CG1        -62.2040     7.6300    22.0200 c3         1 IZR      -0.088600
     36 SAY        -60.1970     5.8610    21.7360 ss         1 IZR      -0.480000
     37 CAX        -58.4360     5.9370    21.2360 c3         1 IZR       0.081600
     38 CAW        -57.5020     6.3820    22.3610 c3         1 IZR      -0.067400
     39 CAV        -57.3080     5.3140    23.4410 c3         1 IZR      -0.079400
     40 CAU        -56.3240     4.2170    23.0350 c3         1 IZR      -0.073400
     41 CAT        -56.3560     3.0180    23.9760 c3         1 IZR      -0.099400
     42 CAS        -55.2280     2.0300    23.7060 c3         1 IZR       0.102000
     43 NAR        -55.4830     0.7620    24.3780 ns         1 IZR      -0.491900
     44 CAQ        -54.9600    -0.4010    23.9610 c          1 IZR       0.599100
     45 OCI        -54.0580    -0.4650    23.1220 o          1 IZR      -0.623100
     46 CAP        -55.6000    -1.6590    24.5210 c3         1 IZR      -0.129400
     47 CAO        -56.2860    -2.3730    23.3590 c3         1 IZR       0.100200
     48 NAN        -57.2270    -1.4490    22.7220 n2         1 IZR      -0.587900
     49 CCJ        -57.0440    -3.5910    23.7610 cc         1 IZR       0.397800
     50 NCK        -57.3760    -4.0350    24.9380 nd         1 IZR      -0.339000
     51 NCL        -58.1430    -5.1770    24.7490 nd         1 IZR      -0.353000
     52 CCM        -58.2620    -5.3890    23.4630 cc         1 IZR       0.416800
     53 CCN        -59.0160    -6.4970    22.8310 c3         1 IZR      -0.128400
     54 NCO        -57.5790    -4.4030    22.7810 na         1 IZR      -0.268800
     55 CCP        -57.3970    -4.1860    21.4110 cc         1 IZR      -0.115200
     56 SCQ        -57.0820    -5.4650    20.3020 ss         1 IZR       0.234000
     57 CAB        -56.8920    -4.3450    18.9920 cc         1 IZR      -0.199300
     58 CAA        -56.5870    -4.8540    17.6190 c3         1 IZR      -0.021800
     59 CAC        -57.0580    -3.0490    19.3990 cd         1 IZR      -0.058300
     60 CAD        -56.8870    -1.8790    18.4740 c3         1 IZR      -0.032800
     61 CAE        -57.3620    -2.9490    20.8020 cd         1 IZR      -0.203900
     62 CAF        -57.6550    -1.7070    21.5440 cf         1 IZR       0.559500
     63 CAG        -58.5380    -0.6940    20.9120 ca         1 IZR      -0.138900
     64 CAH        -59.6080    -1.0730    20.1010 ca         1 IZR      -0.070500
     65 CAI        -60.4460    -0.1190    19.5400 ca         1 IZR      -0.112500
     66 CAJ        -60.1970     1.2250    19.7870 ca         1 IZR       0.137000
     67 CLAK       -61.2410     2.4370    19.0850 cl         1 IZR      -0.193000
     68 CAL        -59.1330     1.6290    20.5860 ca         1 IZR      -0.112500
     69 CAM        -58.3110     0.6650    21.1480 ca         1 IZR      -0.070500
     70 H1         -48.0230     8.6780    17.2350 hc         1 IZR       0.052700
     71 H2         -48.8040     8.4210    18.7950 hc         1 IZR       0.052700
     72 H3         -49.5830     7.8370    17.3250 hc         1 IZR       0.052700
     73 H4         -49.2400    13.1790    17.2920 h5         1 IZR       0.053100
     74 H5         -53.2640    10.1980    15.9340 ha         1 IZR       0.118000
     75 H6         -55.1330     8.6160    15.9900 ha         1 IZR       0.113500
     76 H7         -51.3260     8.0090    19.0720 ha         1 IZR       0.118000
     77 H8         -53.1840     6.4130    19.0980 ha         1 IZR       0.113500
     78 H9         -55.5240     5.9890    18.5780 h1         1 IZR       0.061700
     79 H10        -55.1440     5.5230    16.9250 h1         1 IZR       0.061700
     80 H11        -57.0210     6.5630    16.1910 hn         1 IZR       0.323500
     81 H12        -58.9700     7.5380    16.3040 h1         1 IZR       0.081700
     82 H13        -58.1760     9.6780    15.5580 hc         1 IZR       0.073200
     83 H14        -57.7970    10.1900    17.2120 hc         1 IZR       0.073200
     84 H15        -59.8480    11.3750    16.8150 h1         1 IZR       0.054700
     85 H16        -61.6010    10.1940    15.8090 ho         1 IZR       0.450000
     86 H17        -59.9570    10.2580    18.9250 h1         1 IZR       0.060700
     87 H18        -61.4490     9.6800    18.1600 h1         1 IZR       0.060700
     88 H19        -61.9810     8.2610    19.4560 h1         1 IZR       0.074700
     89 H20        -62.2200     5.4320    20.0880 hn         1 IZR       0.355500
     90 H21        -65.5360     5.8180    17.0880 hc         1 IZR       0.093200
     91 H22        -66.0540     4.3140    18.0060 hc         1 IZR       0.093200
     92 H23        -64.0650     3.0620    17.1420 hc         1 IZR       0.093200
     93 H24        -63.5080     4.5430    16.2100 hc         1 IZR       0.093200
     94 H25        -59.7480     8.7170    22.3800 hc         1 IZR       0.051533
     95 H26        -59.1250     8.5650    20.7320 hc         1 IZR       0.051533
     96 H27        -60.5530     9.5520    21.0490 hc         1 IZR       0.051533
     97 H28        -61.9010     7.8170    23.0490 hc         1 IZR       0.051533
     98 H29        -62.7770     8.4890    21.6630 hc         1 IZR       0.051533
     99 H30        -62.8570     6.7580    22.0070 hc         1 IZR       0.051533
    100 H31        -58.1890     4.9300    20.8980 h1         1 IZR       0.079200
    101 H32        -58.3490     6.5820    20.3680 h1         1 IZR       0.079200
    102 H33        -56.5310     6.6350    21.9190 hc         1 IZR       0.050200
    103 H34        -57.8890     7.3010    22.8050 hc         1 IZR       0.050200
    104 H35        -56.9530     5.7800    24.3650 hc         1 IZR       0.046700
    105 H36        -58.2780     4.8650    23.6790 hc         1 IZR       0.046700
    106 H37        -56.5470     3.8700    22.0210 hc         1 IZR       0.039200
    107 H38        -55.3140     4.6400    22.9980 hc         1 IZR       0.039200
    108 H39        -56.3060     3.3540    25.0170 hc         1 IZR       0.046700
    109 H40        -57.3150     2.5010    23.8560 hc         1 IZR       0.046700
    110 H41        -55.1510     1.8310    22.6330 h1         1 IZR       0.050700
    111 H42        -54.2680     2.4470    24.0220 h1         1 IZR       0.050700
    112 H43        -56.2590     0.7240    25.0190 hn         1 IZR       0.315500
    113 H44        -56.3270    -1.4310    25.3000 hc         1 IZR       0.080700
    114 H45        -54.8270    -2.3010    24.9420 hc         1 IZR       0.080700
    115 H46        -55.5230    -2.6820    22.6340 h1         1 IZR       0.086700
    116 H47        -59.6170    -6.9890    23.5940 hc         1 IZR       0.065033
    117 H48        -59.6720    -6.1280    22.0410 hc         1 IZR       0.065033
    118 H49        -58.3430    -7.2370    22.3920 hc         1 IZR       0.065033
    119 H50        -56.4260    -5.9320    17.6190 hc         1 IZR       0.051700
    120 H51        -57.4060    -4.6340    16.9290 hc         1 IZR       0.051700
    121 H52        -55.6860    -4.3790    17.2240 hc         1 IZR       0.051700
    122 H53        -57.8330    -1.5930    18.0080 hc         1 IZR       0.051700
    123 H54        -56.5100    -1.0070    19.0080 hc         1 IZR       0.051700
    124 H55        -56.1840    -2.1210    17.6770 hc         1 IZR       0.051700
    125 H56        -59.7950    -2.1210    19.9090 ha         1 IZR       0.127500
    126 H57        -61.2800    -0.4140    18.9190 ha         1 IZR       0.134000
    127 H58        -58.9500     2.6800    20.7590 ha         1 IZR       0.134000
    128 H59        -57.4750     0.9660    21.7650 ha         1 IZR       0.127500
@<TRIPOS>BOND
     1     1     2 1   
     2     1    70 1   
     3     1    71 1   
     4     1    72 1   
     5     2     3 1   
     6     2     6 2   
     7     3     4 2   
     8     4     5 1   
     9     4    73 1   
    10     5     6 1   
    11     6     7 1   
    12     7     8 ar  
    13     7    10 ar  
    14     8     9 ar  
    15     8    74 1   
    16     9    12 ar  
    17     9    75 1   
    18    10    11 ar  
    19    10    76 1   
    20    11    12 ar  
    21    11    77 1   
    22    12    13 1   
    23    13    14 1   
    24    13    78 1   
    25    13    79 1   
    26    14    15 1   
    27    14    80 1   
    28    15    16 2   
    29    15    17 1   
    30    17    18 1   
    31    17    22 1   
    32    17    81 1   
    33    18    19 1   
    34    18    82 1   
    35    18    83 1   
    36    19    20 1   
    37    19    21 1   
    38    19    84 1   
    39    20    85 1   
    40    21    22 1   
    41    21    86 1   
    42    21    87 1   
    43    22    23 1   
    44    23    24 2   
    45    23    25 1   
    46    25    26 1   
    47    25    33 1   
    48    25    88 1   
    49    26    27 1   
    50    26    89 1   
    51    27    28 2   
    52    27    29 1   
    53    29    30 1   
    54    29    31 1   
    55    29    32 1   
    56    31    32 1   
    57    31    90 1   
    58    31    91 1   
    59    32    92 1   
    60    32    93 1   
    61    33    34 1   
    62    33    35 1   
    63    33    36 1   
    64    34    94 1   
    65    34    95 1   
    66    34    96 1   
    67    35    97 1   
    68    35    98 1   
    69    35    99 1   
    70    36    37 1   
    71    37    38 1   
    72    37   100 1   
    73    37   101 1   
    74    38    39 1   
    75    38   102 1   
    76    38   103 1   
    77    39    40 1   
    78    39   104 1   
    79    39   105 1   
    80    40    41 1   
    81    40   106 1   
    82    40   107 1   
    83    41    42 1   
    84    41   108 1   
    85    41   109 1   
    86    42    43 1   
    87    42   110 1   
    88    42   111 1   
    89    43    44 1   
    90    43   112 1   
    91    44    45 2   
    92    44    46 1   
    93    46    47 1   
    94    46   113 1   
    95    46   114 1   
    96    47    48 1   
    97    47    49 1   
    98    47   115 1   
    99    48    62 2   
   100    49    50 2   
   101    49    54 1   
   102    50    51 1   
   103    51    52 2   
   104    52    53 1   
   105    52    54 1   
   106    53   116 1   
   107    53   117 1   
   108    53   118 1   
   109    54    55 1   
   110    55    56 1   
   111    55    61 2   
   112    56    57 1   
   113    57    58 1   
   114    57    59 2   
   115    58   119 1   
   116    58   120 1   
   117    58   121 1   
   118    59    60 1   
   119    59    61 1   
   120    60   122 1   
   121    60   123 1   
   122    60   124 1   
   123    61    62 1   
   124    62    63 1   
   125    63    64 ar  
   126    63    69 ar  
   127    64    65 ar  
   128    64   125 1   
   129    65    66 ar  
   130    65   126 1   
   131    66    67 1   
   132    66    68 ar  
   133    68    69 ar  
   134    68   127 1   
   135    69   128 1   
@<TRIPOS>SUBSTRUCTURE
     1 IZR         1 TEMP              0 ****  ****    0 ROOT
