@<TRIPOS>MOLECULE
IZS
   39    39     1     0     0
SMALL
No Charge or Current Charge


@<TRIPOS>ATOM
      1 C          -92.8150   126.1900   -14.9770 c3         1 IZS      -0.096100
      2 N          -96.0410   121.5840   -17.4550 nh         1 IZS      -0.767300
      3 O          -94.1260   124.5360   -16.1160 os         1 IZS      -0.459100
      4 C1         -94.2400   125.7060   -15.2890 c3         1 IZS       0.167600
      5 C2         -95.2840   123.9140   -16.5200 c          1 IZS       0.569100
      6 C3         -94.9850   122.6610   -17.3940 c3         1 IZS       0.182800
      7 C7         -96.9570   119.3030   -14.1590 ca         1 IZS      -0.271000
      8 C8         -95.9220   120.2500   -14.1220 ca         1 IZS       0.166300
      9 C9         -95.0870   120.4670   -12.8700 c3         1 IZS      -0.133200
     10 C10        -93.9330   119.4520   -12.7510 c3         1 IZS      -0.084100
     11 C31        -98.2860   116.7330   -15.7910 c3         1 IZS      -0.084100
     12 C32        -98.8010   118.1560   -15.4970 c3         1 IZS      -0.133200
     13 N2         -95.6210   120.9960   -15.2020 nb         1 IZS      -0.246500
     14 C5         -96.3600   120.7970   -16.3160 ca         1 IZS       0.387900
     15 C4         -96.8190   121.4660   -18.7160 c3         1 IZS       0.228100
     16 O1         -96.4090   124.3070   -16.2250 o          1 IZS      -0.483000
     17 C6         -97.6700   119.1630   -15.3590 ca         1 IZS       0.166300
     18 N1         -97.3710   119.9100   -16.4400 nb         1 IZS      -0.246500
     19 H1         -92.8480   127.0850   -14.3450 hc         1 IZS       0.047033
     20 H2         -92.2520   125.4140   -14.4460 hc         1 IZS       0.047033
     21 H3         -92.2820   126.4410   -15.9020 hc         1 IZS       0.047033
     22 H4         -94.7920   126.5020   -15.8070 h1         1 IZS       0.049700
     23 H5         -94.7610   125.4740   -14.3500 h1         1 IZS       0.049700
     24 H6         -94.0460   122.2320   -17.0190 h1         1 IZS       0.085700
     25 H7         -94.7520   123.0390   -18.3970 h1         1 IZS       0.085700
     26 H8         -97.1950   118.6970   -13.2890 ha         1 IZS       0.130000
     27 H9         -94.6720   121.4830   -12.8590 hc         1 IZS       0.056700
     28 H10        -95.7240   120.3880   -11.9810 hc         1 IZS       0.056700
     29 H11        -93.3540   119.6350   -11.8380 hc         1 IZS       0.038700
     30 H12        -94.3210   118.4270   -12.7130 hc         1 IZS       0.038700
     31 H13        -93.2560   119.5340   -13.6100 hc         1 IZS       0.038700
     32 H14        -99.1250   116.0320   -15.8820 hc         1 IZS       0.038700
     33 H15        -97.7180   116.7130   -16.7290 hc         1 IZS       0.038700
     34 H16        -97.6320   116.3830   -14.9830 hc         1 IZS       0.038700
     35 H17        -99.4890   118.4580   -16.2970 hc         1 IZS       0.056700
     36 H18        -99.3940   118.1360   -14.5750 hc         1 IZS       0.056700
     37 H19        -97.8760   121.7050   -18.5400 h1         1 IZS       0.046033
     38 H20        -96.4450   122.1560   -19.4850 h1         1 IZS       0.046033
     39 H21        -96.7490   120.4470   -19.1180 h1         1 IZS       0.046033
@<TRIPOS>BOND
     1     1     4 1   
     2     1    19 1   
     3     1    20 1   
     4     1    21 1   
     5     2     6 1   
     6     2    14 1   
     7     2    15 1   
     8     3     4 1   
     9     3     5 1   
    10     4    22 1   
    11     4    23 1   
    12     5     6 1   
    13     5    16 2   
    14     6    24 1   
    15     6    25 1   
    16     7     8 ar  
    17     7    17 ar  
    18     7    26 1   
    19     8     9 1   
    20     8    13 ar  
    21     9    10 1   
    22     9    27 1   
    23     9    28 1   
    24    10    29 1   
    25    10    30 1   
    26    10    31 1   
    27    11    12 1   
    28    11    32 1   
    29    11    33 1   
    30    11    34 1   
    31    12    17 1   
    32    12    35 1   
    33    12    36 1   
    34    13    14 ar  
    35    14    18 ar  
    36    15    37 1   
    37    15    38 1   
    38    15    39 1   
    39    17    18 ar  
@<TRIPOS>SUBSTRUCTURE
     1 IZS         1 TEMP              0 ****  ****    0 ROOT
