@<TRIPOS>MOLECULE
IZS
   39    39     1     0     0
SMALL
abcg2


@<TRIPOS>ATOM
      1 C          -93.0390   126.2960   -15.1720 c3         1 IZS      -0.096100
      2 N          -95.8290   121.4180   -17.3110 nh         1 IZS      -0.767300
      3 O          -94.1280   124.3760   -16.0950 os         1 IZS      -0.459100
      4 C1         -94.3740   125.6330   -15.4050 c3         1 IZS       0.167600
      5 C2         -95.1920   123.6360   -16.4110 c          1 IZS       0.569100
      6 C3         -94.7690   122.3830   -17.1630 c3         1 IZS       0.182800
      7 C7         -97.0190   119.3130   -14.0770 ca         1 IZS      -0.271000
      8 C8         -95.9170   120.1610   -14.0200 ca         1 IZS       0.166300
      9 C9         -95.0980   120.3130   -12.7690 c3         1 IZS      -0.133200
     10 C10        -93.7290   119.6330   -12.8930 c3         1 IZS      -0.084100
     11 C31        -98.4780   116.9800   -16.0940 c3         1 IZS      -0.084100
     12 C32        -98.8860   118.3130   -15.4520 c3         1 IZS      -0.133200
     13 N2         -95.5310   120.8670   -15.0850 nb         1 IZS      -0.246500
     14 C5         -96.2430   120.7160   -16.2150 ca         1 IZS       0.387900
     15 C4         -96.6540   121.4560   -18.5110 c3         1 IZS       0.228100
     16 O1         -96.3340   123.9370   -16.1510 o          1 IZS      -0.483000
     17 C6         -97.7070   119.2280   -15.2840 ca         1 IZS       0.166300
     18 N1         -97.3260   119.9310   -16.3530 nb         1 IZS      -0.246500
     19 H1         -93.1940   127.2440   -14.6550 hc         1 IZS       0.047033
     20 H2         -92.3940   125.6690   -14.5550 hc         1 IZS       0.047033
     21 H3         -92.5330   126.4990   -16.1170 hc         1 IZS       0.047033
     22 H4         -95.0300   126.2420   -16.0280 h1         1 IZS       0.049700
     23 H5         -94.8900   125.4130   -14.4700 h1         1 IZS       0.049700
     24 H6         -93.9160   121.9500   -16.6450 h1         1 IZS       0.085700
     25 H7         -94.4290   122.6910   -18.1530 h1         1 IZS       0.085700
     26 H8         -97.3360   118.7490   -13.2110 ha         1 IZS       0.130000
     27 H9         -94.9570   121.3790   -12.5760 hc         1 IZS       0.056700
     28 H10        -95.6470   119.8920   -11.9260 hc         1 IZS       0.056700
     29 H11        -93.1510   119.7710   -11.9780 hc         1 IZS       0.038700
     30 H12        -93.8430   118.5600   -13.0660 hc         1 IZS       0.038700
     31 H13        -93.1630   120.0540   -13.7240 hc         1 IZS       0.038700
     32 H14        -99.3480   116.3330   -16.2180 hc         1 IZS       0.038700
     33 H15        -98.0300   117.1450   -17.0750 hc         1 IZS       0.038700
     34 H16        -97.7500   116.4560   -15.4710 hc         1 IZS       0.038700
     35 H17        -99.6270   118.8090   -16.0810 hc         1 IZS       0.056700
     36 H18        -99.3410   118.1260   -14.4770 hc         1 IZS       0.056700
     37 H19        -97.5800   122.0170   -18.3500 h1         1 IZS       0.046033
     38 H20        -96.0860   121.9360   -19.3040 h1         1 IZS       0.046033
     39 H21        -96.9150   120.4470   -18.8240 h1         1 IZS       0.046033
@<TRIPOS>BOND
     1     1     4 1   
     2     1    19 1   
     3     1    20 1   
     4     1    21 1   
     5     2     6 1   
     6     2    14 1   
     7     2    15 1   
     8     3     4 1   
     9     3     5 1   
    10     4    22 1   
    11     4    23 1   
    12     5     6 1   
    13     5    16 2   
    14     6    24 1   
    15     6    25 1   
    16     7     8 ar  
    17     7    17 ar  
    18     7    26 1   
    19     8     9 1   
    20     8    13 ar  
    21     9    10 1   
    22     9    27 1   
    23     9    28 1   
    24    10    29 1   
    25    10    30 1   
    26    10    31 1   
    27    11    12 1   
    28    11    32 1   
    29    11    33 1   
    30    11    34 1   
    31    12    17 1   
    32    12    35 1   
    33    12    36 1   
    34    13    14 ar  
    35    14    18 ar  
    36    15    37 1   
    37    15    38 1   
    38    15    39 1   
    39    17    18 ar  
@<TRIPOS>SUBSTRUCTURE
     1 IZS         1 TEMP              0 ****  ****    0 ROOT
