@<TRIPOS>MOLECULE
IZT
   53    56     1     0     0
SMALL
No Charge or Current Charge


@<TRIPOS>ATOM
      1 C10         95.0620    -6.4610    13.8940 c          1 IZT       0.589100
      2 C11         92.3410    -7.8740    14.5570 ca         1 IZT      -0.129000
      3 C13         90.7710    -6.4980    16.4830 ca         1 IZT      -0.080000
      4 C18         92.8000    -6.6470    15.0970 ca         1 IZT      -0.025000
      5 C20        100.4070    -5.2260    11.5880 ca         1 IZT      -0.037000
      6 C21         95.4700    -6.4050    10.0350 c3         1 IZT      -0.356100
      7 C22         92.0050    -5.9670    16.0520 ca         1 IZT      -0.164000
      8 C25         98.2840    -7.0540    11.7810 ca         1 IZT      -0.095000
      9 C26         98.9030    -3.3720    12.0860 ca         1 IZT      -0.090000
     10 C27         99.5800    -7.5130    11.4940 ca         1 IZT      -0.110000
     11 C28        100.6390    -6.5990    11.3930 ca         1 IZT      -0.081000
     12 C1          89.0970    -9.4760    15.1580 c          1 IZT       0.598000
     13 N2          90.3520    -9.4680    14.5340 n          1 IZT      -0.292000
     14 N3          89.1270    -8.3970    16.0520 n          1 IZT      -0.291000
     15 S4          95.6300    -4.8890    10.9550 s6         1 IZT       1.231100
     16 C5          91.1690    -8.4380    15.0800 ca         1 IZT       0.028600
     17 C7          90.4030    -7.7680    16.0250 ca         1 IZT      -0.017400
     18 C8          98.0270    -5.6820    11.9600 ca         1 IZT       0.260000
     19 C9          96.1590    -5.3850    13.6360 c3         1 IZT       0.144800
     20 C12         99.1010    -4.7570    11.8770 ca         1 IZT      -0.018000
     21 O15         94.3350    -4.5710    11.5640 o          1 IZT      -0.535000
     22 O16         96.3110    -3.9020    10.1140 o          1 IZT      -0.535000
     23 N17         93.9980    -6.0120    14.6680 ns         1 IZT      -0.140000
     24 O19         95.1490    -7.6070    13.4560 o          1 IZT      -0.594100
     25 C29        101.4820    -4.3200    11.4980 ca         1 IZT      -0.097000
     26 C30         99.9810    -2.4750    11.9970 ca         1 IZT      -0.099000
     27 C31        101.2690    -2.9470    11.7010 ca         1 IZT      -0.103000
     28 H34         92.8560    -8.3730    13.7430 ha         1 IZT       0.155000
     29 H35         90.1210    -5.9310    17.1460 ha         1 IZT       0.125000
     30 H37         94.7550    -6.2220     9.2270 h1         1 IZT       0.107367
     31 H39         96.4580    -6.6590     9.6410 h1         1 IZT       0.107367
     32 H38         95.1040    -7.1710    10.7250 h1         1 IZT       0.107367
     33 H40         92.3220    -4.9960    16.4280 ha         1 IZT       0.113000
     34 H41         91.4090   -10.1550    12.8390 h1         1 IZT       0.053033
     35 H43         91.5170   -11.2100    14.2790 h1         1 IZT       0.053033
     36 H42         90.0160   -11.1660    13.3090 h1         1 IZT       0.053033
     37 H45         88.5580    -7.7140    17.9720 h1         1 IZT       0.050700
     38 H44         87.3340    -7.4850    16.6890 h1         1 IZT       0.050700
     39 H46         87.6290    -9.1130    17.3680 h1         1 IZT       0.050700
     40 H47         97.4700    -7.7680    11.8650 ha         1 IZT       0.133000
     41 H48         97.9160    -2.9820    12.3180 ha         1 IZT       0.115000
     42 H49         99.7620    -8.5760    11.3530 ha         1 IZT       0.120000
     43 H50        101.6400    -6.9610    11.1710 ha         1 IZT       0.117000
     44 H32         96.9690    -5.6000    14.3440 h1         1 IZT       0.086200
     45 H33         95.7500    -4.4110    13.9360 h1         1 IZT       0.086200
     46 H36         94.0820    -5.0520    14.9790 hn         1 IZT       0.152000
     47 H51        102.4840    -4.6790    11.2740 ha         1 IZT       0.115000
     48 H52         99.8160    -1.4110    12.1570 ha         1 IZT       0.116000
     49 H53        102.1020    -2.2510    11.6330 ha         1 IZT       0.116000
     50 C23         90.8520   -10.5670    13.6900 c3         1 IZT       0.103300
     51 O14         88.1870   -10.2760    14.9910 o          1 IZT      -0.562000
     52 C24         88.1000    -8.1640    17.0820 c3         1 IZT       0.106300
     53 N6          96.7110    -5.2760    12.2490 nh         1 IZT      -0.793300
@<TRIPOS>BOND
     1     1    19 1   
     2     1    23 1   
     3     1    24 2   
     4     2     4 ar  
     5     2    16 ar  
     6     2    28 1   
     7     3     7 ar  
     8     3    17 ar  
     9     3    29 1   
    10     4     7 ar  
    11     4    23 1   
    12     5    11 ar  
    13     5    20 ar  
    14     5    25 ar  
    15     6    15 1   
    16     6    30 1   
    17     6    31 1   
    18     6    32 1   
    19     7    33 1   
    20     8    10 ar  
    21     8    18 ar  
    22     8    40 1   
    23     9    20 ar  
    24     9    26 ar  
    25     9    41 1   
    26    10    11 ar  
    27    10    42 1   
    28    11    43 1   
    29    12    13 1   
    30    12    14 1   
    31    12    51 2   
    32    13    16 1   
    33    13    50 1   
    34    14    17 1   
    35    14    52 1   
    36    15    21 2   
    37    15    22 2   
    38    15    53 1   
    39    16    17 ar  
    40    18    20 ar  
    41    18    53 1   
    42    19    44 1   
    43    19    45 1   
    44    19    53 1   
    45    23    46 1   
    46    25    27 ar  
    47    25    47 1   
    48    26    27 ar  
    49    26    48 1   
    50    27    49 1   
    51    34    50 1   
    52    35    50 1   
    53    36    50 1   
    54    37    52 1   
    55    38    52 1   
    56    39    52 1   
@<TRIPOS>SUBSTRUCTURE
     1 IZT         1 TEMP              0 ****  ****    0 ROOT
