@<TRIPOS>MOLECULE
IZT
   53    56     1     0     0
SMALL
abcg2


@<TRIPOS>ATOM
      1 C10         94.5460    -5.8670    12.9880 c          1 IZT       0.589100
      2 C11         92.5470    -7.7120    14.3240 ca         1 IZT      -0.129000
      3 C13         91.1620    -6.4780    16.4730 ca         1 IZT      -0.080000
      4 C18         92.8880    -6.4250    14.7550 ca         1 IZT      -0.025000
      5 C20         99.9160    -5.6640    12.4480 ca         1 IZT      -0.037000
      6 C21         95.2290    -6.0120     9.1970 c3         1 IZT      -0.356100
      7 C22         92.2010    -5.8280    15.8160 ca         1 IZT      -0.164000
      8 C25         97.6220    -7.0750    11.6950 ca         1 IZT      -0.095000
      9 C26         98.7240    -3.5480    12.2210 ca         1 IZT      -0.090000
     10 C27         98.8140    -7.7650    11.9890 ca         1 IZT      -0.110000
     11 C28         99.9340    -7.0750    12.3610 ca         1 IZT      -0.081000
     12 C1          89.9360    -9.7870    15.7030 c          1 IZT       0.598000
     13 N2          90.9510    -9.5820    14.7920 n          1 IZT      -0.292000
     14 N3          89.8670    -8.6420    16.4620 n          1 IZT      -0.291000
     15 S4          95.9590    -4.5850     9.9640 s6         1 IZT       1.231100
     16 C5          91.5100    -8.3390    14.9840 ca         1 IZT       0.028600
     17 C7          90.8220    -7.7420    16.0410 ca         1 IZT      -0.017400
     18 C8          97.5730    -5.7080    11.7590 ca         1 IZT       0.260000
     19 C9          95.4860    -4.7210    12.6240 c3         1 IZT       0.144800
     20 C12         98.7230    -4.9590    12.1370 ca         1 IZT      -0.018000
     21 O15         94.9370    -3.5530    10.0570 o          1 IZT      -0.535000
     22 O16         97.2000    -4.3040     9.2620 o          1 IZT      -0.535000
     23 N17         93.9230    -5.6750    14.1720 ns         1 IZT      -0.140000
     24 O19         94.3740    -6.8240    12.2580 o          1 IZT      -0.594100
     25 C29        101.0650    -4.9370    12.8410 ca         1 IZT      -0.097000
     26 C30         99.8510    -2.8740    12.6080 ca         1 IZT      -0.099000
     27 C31        101.0340    -3.5730    12.9220 ca         1 IZT      -0.103000
     28 H34         93.0700    -8.1990    13.5170 ha         1 IZT       0.155000
     29 H35         90.6450    -5.9940    17.2910 ha         1 IZT       0.125000
     30 H37         94.9830    -5.7360     8.1730 h1         1 IZT       0.107367
     31 H39         95.9460    -6.8290     9.1940 h1         1 IZT       0.107367
     32 H38         94.3340    -6.2970     9.7400 h1         1 IZT       0.107367
     33 H40         92.4780    -4.8300    16.1360 ha         1 IZT       0.113000
     34 H41         91.3540   -10.0960    12.8090 h1         1 IZT       0.053033
     35 H43         92.3830   -10.8950    14.0110 h1         1 IZT       0.053033
     36 H42         90.6970   -11.3890    13.8180 h1         1 IZT       0.053033
     37 H45         89.4670    -8.2300    18.4710 h1         1 IZT       0.050700
     38 H44         88.2860    -7.5750    17.3240 h1         1 IZT       0.050700
     39 H46         88.3220    -9.3080    17.6660 h1         1 IZT       0.050700
     40 H47         96.7320    -7.6290    11.4320 ha         1 IZT       0.133000
     41 H48         97.8260    -2.9960    11.9800 ha         1 IZT       0.115000
     42 H49         98.8310    -8.8450    11.9280 ha         1 IZT       0.120000
     43 H50        100.8490    -7.6030    12.5990 ha         1 IZT       0.117000
     44 H32         96.1030    -4.4550    13.4860 h1         1 IZT       0.086200
     45 H33         94.8830    -3.8370    12.4080 h1         1 IZT       0.086200
     46 H36         94.1560    -4.8250    14.6640 hn         1 IZT       0.152000
     47 H51        101.9700    -5.4820    13.0780 ha         1 IZT       0.115000
     48 H52         99.8360    -1.7940    12.6710 ha         1 IZT       0.116000
     49 H53        101.9170    -3.0250    13.2260 ha         1 IZT       0.116000
     50 C23         91.3740   -10.5400    13.8040 c3         1 IZT       0.103300
     51 O14         89.2440   -10.7820    15.8100 o          1 IZT      -0.562000
     52 C24         88.9370    -8.4220    17.5390 c3         1 IZT       0.106300
     53 N6          96.3560    -5.0150    11.5130 nh         1 IZT      -0.793300
@<TRIPOS>BOND
     1     1    19 1   
     2     1    23 1   
     3     1    24 2   
     4     2     4 ar  
     5     2    16 ar  
     6     2    28 1   
     7     3     7 ar  
     8     3    17 ar  
     9     3    29 1   
    10     4     7 ar  
    11     4    23 1   
    12     5    11 ar  
    13     5    20 ar  
    14     5    25 ar  
    15     6    15 1   
    16     6    30 1   
    17     6    31 1   
    18     6    32 1   
    19     7    33 1   
    20     8    10 ar  
    21     8    18 ar  
    22     8    40 1   
    23     9    20 ar  
    24     9    26 ar  
    25     9    41 1   
    26    10    11 ar  
    27    10    42 1   
    28    11    43 1   
    29    12    13 1   
    30    12    14 1   
    31    12    51 2   
    32    13    16 1   
    33    13    50 1   
    34    14    17 1   
    35    14    52 1   
    36    15    21 2   
    37    15    22 2   
    38    15    53 1   
    39    16    17 ar  
    40    18    20 ar  
    41    18    53 1   
    42    19    44 1   
    43    19    45 1   
    44    19    53 1   
    45    23    46 1   
    46    25    27 ar  
    47    25    47 1   
    48    26    27 ar  
    49    26    48 1   
    50    27    49 1   
    51    34    50 1   
    52    35    50 1   
    53    36    50 1   
    54    37    52 1   
    55    38    52 1   
    56    39    52 1   
@<TRIPOS>SUBSTRUCTURE
     1 IZT         1 TEMP              0 ****  ****    0 ROOT
