@<TRIPOS>MOLECULE
IZU
   97    97     1     0     0
SMALL
abcg2


@<TRIPOS>ATOM
      1 C10        116.8180   132.7570   136.6390 c3         1 IZU      -0.041200
      2 C13        114.3840   134.6770   135.2840 c3         1 IZU      -0.048900
      3 C15        116.7460   136.1800   138.0120 c3         1 IZU      -0.040200
      4 C17        117.7590   138.0110   136.5370 c2         1 IZU      -0.099400
      5 C20        119.7210   138.0560   134.9180 c3         1 IZU      -0.032200
      6 C21        120.4510   139.4030   135.0080 c3         1 IZU      -0.070400
      7 C22        121.1390   139.8740   133.7200 c3         1 IZU      -0.047700
      8 C24        121.4920   141.3690   133.8290 c3         1 IZU      -0.086400
      9 C01        123.1830   127.2450   136.3190 c3         1 IZU      -0.054400
     10 C02        122.0320   128.0630   136.8390 c2         1 IZU      -0.118400
     11 C03        122.3590   128.8930   138.0500 c3         1 IZU      -0.054400
     12 C04        120.8360   128.0270   136.2430 c2         1 IZU      -0.220200
     13 C05        119.5940   128.7810   136.6100 c3         1 IZU      -0.037200
     14 C06        119.2670   129.8920   135.5880 c3         1 IZU      -0.034200
     15 C07        117.9700   130.6110   135.8690 c2         1 IZU      -0.130400
     16 C08        116.7230   129.8020   135.6410 c3         1 IZU      -0.049900
     17 C09        117.9820   131.8770   136.2990 c2         1 IZU      -0.204200
     18 C11        116.7960   134.0500   135.7960 c3         1 IZU      -0.035200
     19 C12        115.6090   134.9270   136.1190 c2         1 IZU      -0.128400
     20 C14        115.6120   135.8400   137.0940 c2         1 IZU      -0.197200
     21 C16        117.2280   137.6430   137.9070 c3         1 IZU      -0.033200
     22 C18        116.7790   138.6900   135.6220 c3         1 IZU      -0.057900
     23 C19        119.0230   137.7330   136.2090 c2         1 IZU      -0.225200
     24 C23        122.3830   139.0400   133.4090 c3         1 IZU      -0.087100
     25 C25        120.4000   142.3320   133.3850 c3         1 IZU       0.242600
     26 C30        118.1580   142.4460   136.4660 c3         1 IZU      -0.438400
     27 C31        119.1950   142.9940   137.4270 c6         1 IZU       0.222300
     28 C33        121.5310   143.3230   137.7080 c6         1 IZU       0.141300
     29 C34        122.8350   143.0420   136.9780 c3         1 IZU       0.153600
     30 C36        121.5050   142.7500   139.1310 c6         1 IZU       0.106300
     31 C38        120.1310   142.9610   139.7420 c6         1 IZU       0.132300
     32 C40        119.0270   142.4270   138.8380 c6         1 IZU       0.139300
     33 O26        119.1320   142.0260   133.9730 os         1 IZU      -0.628400
     34 O28        118.7530   144.4680   134.6880 o          1 IZU      -0.832500
     35 O29        116.7810   142.8570   134.2010 o          1 IZU      -0.832500
     36 O32        120.5080   142.7200   136.9300 os         1 IZU      -0.438000
     37 O35        123.9030   143.6790   137.6920 oh         1 IZU      -0.752000
     38 O37        122.4470   143.3840   139.9950 oh         1 IZU      -0.755000
     39 O39        120.0110   142.3020   141.0040 oh         1 IZU      -0.684000
     40 O41        119.0510   141.0020   138.7920 oh         1 IZU      -0.704000
     41 P27        118.1640   143.0860   134.7480 p5         1 IZU       1.431400
     42 H101       115.8700   132.2320   136.5220 hc         1 IZU       0.044200
     43 H102       116.8830   133.0490   137.6940 hc         1 IZU       0.044200
     44 H132       113.5390   135.2840   135.6120 hc         1 IZU       0.034700
     45 H131       114.5830   134.9010   134.2310 hc         1 IZU       0.034700
     46 H133       114.0890   133.6240   135.3270 hc         1 IZU       0.034700
     47 H151       117.5980   135.5220   137.8370 hc         1 IZU       0.036200
     48 H152       116.4270   136.0090   139.0480 hc         1 IZU       0.036200
     49 H202       119.0090   138.0990   134.0890 hc         1 IZU       0.032200
     50 H201       120.4300   137.2580   134.6800 hc         1 IZU       0.032200
     51 H212       121.1980   139.3610   135.8110 hc         1 IZU       0.056200
     52 H211       119.7240   140.1550   135.3050 hc         1 IZU       0.056200
     53 H221       120.4310   139.7490   132.8910 hc         1 IZU       0.055700
     54 H241       122.3640   141.5920   133.2060 hc         1 IZU       0.026200
     55 H242       121.7760   141.5890   134.8590 hc         1 IZU       0.026200
     56 H012       124.0260   127.8890   136.0490 hc         1 IZU       0.037700
     57 H011       123.5510   126.5590   137.0890 hc         1 IZU       0.037700
     58 H013       122.9000   126.6600   135.4430 hc         1 IZU       0.037700
     59 H031       123.1930   129.5670   137.8300 hc         1 IZU       0.037700
     60 H032       121.5210   129.4940   138.3980 hc         1 IZU       0.037700
     61 H033       122.6880   128.2520   138.8740 hc         1 IZU       0.037700
     62 H041       120.7390   127.3960   135.3610 ha         1 IZU       0.161000
     63 H051       118.7550   128.0790   136.6510 hc         1 IZU       0.044200
     64 H052       119.6750   129.2310   137.6010 hc         1 IZU       0.044200
     65 H062       120.0920   130.6070   135.5820 hc         1 IZU       0.044200
     66 H061       119.2230   129.4400   134.5900 hc         1 IZU       0.044200
     67 H081       115.8120   130.3870   135.7500 hc         1 IZU       0.035700
     68 H082       116.7340   129.3700   134.6350 hc         1 IZU       0.035700
     69 H083       116.6650   128.9610   136.3380 hc         1 IZU       0.035700
     70 H2         118.9550   132.3520   136.4140 ha         1 IZU       0.166000
     71 H111       116.7630   133.7760   134.7380 hc         1 IZU       0.049700
     72 H112       117.7320   134.5890   135.9520 hc         1 IZU       0.049700
     73 H4         114.7000   136.4120   137.2550 ha         1 IZU       0.165000
     74 H162       118.0090   137.7920   138.6560 hc         1 IZU       0.044700
     75 H161       116.4030   138.3110   138.1700 hc         1 IZU       0.044700
     76 H181       116.4740   139.6500   136.0500 hc         1 IZU       0.048367
     77 H182       117.1850   138.8810   134.6300 hc         1 IZU       0.048367
     78 H183       115.8720   138.0890   135.5180 hc         1 IZU       0.048367
     79 H191       119.6480   137.2750   136.9740 ha         1 IZU       0.148000
     80 H231       122.1500   137.9750   133.3420 hc         1 IZU       0.018367
     81 H233       122.8330   139.3450   132.4620 hc         1 IZU       0.018367
     82 H232       123.1350   139.1680   134.1940 hc         1 IZU       0.018367
     83 H252       120.2750   142.2640   132.2990 h1         1 IZU       0.025200
     84 H251       120.6770   143.3590   133.6300 h1         1 IZU       0.025200
     85 H302       117.1750   142.6930   136.8750 hc         1 IZU       0.071200
     86 H301       118.2160   141.3580   136.4260 hc         1 IZU       0.071200
     87 H311       119.0760   144.0820   137.4990 h1         1 IZU       0.049700
     88 H331       121.3730   144.4100   137.7620 h1         1 IZU       0.060700
     89 H341       122.9970   141.9610   136.9300 h1         1 IZU       0.047700
     90 H342       122.7690   143.4320   135.9590 h1         1 IZU       0.047700
     91 H361       121.7130   141.6750   139.0690 h1         1 IZU       0.054700
     92 H381       119.9800   144.0400   139.8700 h1         1 IZU       0.049700
     93 H401       118.0610   142.7690   139.2290 h1         1 IZU       0.046700
     94 H351       124.7430   143.3400   137.3580 ho         1 IZU       0.504000
     95 H371       123.2780   143.4610   139.4980 ho         1 IZU       0.530000
     96 H391       120.8140   142.4820   141.5110 ho         1 IZU       0.457000
     97 H411       119.2170   140.6980   139.6950 ho         1 IZU       0.500000
@<TRIPOS>BOND
     1     1    17 1   
     2     1    18 1   
     3     1    42 1   
     4     1    43 1   
     5     2    19 1   
     6     2    44 1   
     7     2    45 1   
     8     2    46 1   
     9     3    20 1   
    10     3    21 1   
    11     3    47 1   
    12     3    48 1   
    13     4    21 1   
    14     4    22 1   
    15     4    23 2   
    16     5     6 1   
    17     5    23 1   
    18     5    49 1   
    19     5    50 1   
    20     6     7 1   
    21     6    51 1   
    22     6    52 1   
    23     7     8 1   
    24     7    24 1   
    25     7    53 1   
    26     8    25 1   
    27     8    54 1   
    28     8    55 1   
    29     9    10 1   
    30     9    56 1   
    31     9    57 1   
    32     9    58 1   
    33    10    11 1   
    34    10    12 2   
    35    11    59 1   
    36    11    60 1   
    37    11    61 1   
    38    12    13 1   
    39    12    62 1   
    40    13    14 1   
    41    13    63 1   
    42    13    64 1   
    43    14    15 1   
    44    14    65 1   
    45    14    66 1   
    46    15    16 1   
    47    15    17 2   
    48    16    67 1   
    49    16    68 1   
    50    16    69 1   
    51    17    70 1   
    52    18    19 1   
    53    18    71 1   
    54    18    72 1   
    55    19    20 2   
    56    20    73 1   
    57    21    74 1   
    58    21    75 1   
    59    22    76 1   
    60    22    77 1   
    61    22    78 1   
    62    23    79 1   
    63    24    80 1   
    64    24    81 1   
    65    24    82 1   
    66    25    33 1   
    67    25    83 1   
    68    25    84 1   
    69    26    27 1   
    70    26    41 1   
    71    26    85 1   
    72    26    86 1   
    73    27    32 1   
    74    27    36 1   
    75    27    87 1   
    76    28    29 1   
    77    28    30 1   
    78    28    36 1   
    79    28    88 1   
    80    29    37 1   
    81    29    89 1   
    82    29    90 1   
    83    30    31 1   
    84    30    38 1   
    85    30    91 1   
    86    31    32 1   
    87    31    39 1   
    88    31    92 1   
    89    32    40 1   
    90    32    93 1   
    91    33    41 1   
    92    34    41 1   
    93    35    41 1   
    94    37    94 1   
    95    38    95 1   
    96    39    96 1   
    97    40    97 1   
@<TRIPOS>SUBSTRUCTURE
     1 IZU         1 TEMP              0 ****  ****    0 ROOT
