@<TRIPOS>MOLECULE
IZU
   97    97     1     0     0
SMALL
No Charge or Current Charge


@<TRIPOS>ATOM
      1 C10        117.2130   132.9840   137.2740 c3         1 IZU      -0.041200
      2 C13        114.3510   134.5120   136.6100 c3         1 IZU      -0.048900
      3 C15        116.8690   136.4920   138.9440 c3         1 IZU      -0.040200
      4 C17        117.8620   137.8600   137.0100 c2         1 IZU      -0.099400
      5 C20        119.8120   137.4490   135.3870 c3         1 IZU      -0.032200
      6 C21        120.2350   138.8280   134.8260 c3         1 IZU      -0.070400
      7 C22        120.7810   138.8000   133.3680 c3         1 IZU      -0.047700
      8 C24        121.0570   140.2220   132.7940 c3         1 IZU      -0.086400
      9 C01        123.8870   128.4550   135.2480 c3         1 IZU      -0.054400
     10 C02        122.5770   129.0240   135.7620 c2         1 IZU      -0.118400
     11 C03        122.7060   129.5910   137.1680 c3         1 IZU      -0.054400
     12 C04        121.4490   129.0130   135.0260 c2         1 IZU      -0.220200
     13 C05        120.0770   129.5220   135.4310 c3         1 IZU      -0.037200
     14 C06        119.8950   131.0230   135.1160 c3         1 IZU      -0.034200
     15 C07        118.5610   131.5800   135.5960 c2         1 IZU      -0.130400
     16 C08        117.3900   131.1760   134.7070 c3         1 IZU      -0.049900
     17 C09        118.4680   132.3680   136.6840 c2         1 IZU      -0.204200
     18 C11        116.8830   134.3500   136.6380 c3         1 IZU      -0.035200
     19 C12        115.6430   135.0030   137.2410 c2         1 IZU      -0.128400
     20 C14        115.6580   135.9340   138.2140 c2         1 IZU      -0.197200
     21 C16        117.3170   137.8810   138.4320 c3         1 IZU      -0.033200
     22 C18        116.8220   138.2290   135.9590 c3         1 IZU      -0.057900
     23 C19        119.1460   137.5500   136.7470 c2         1 IZU      -0.225200
     24 C23        122.0510   137.9210   133.2400 c3         1 IZU      -0.087100
     25 C25        119.8070   141.1270   132.6180 c3         1 IZU       0.242600
     26 C30        119.2010   143.6270   135.6920 c3         1 IZU      -0.438400
     27 C31        119.8950   143.4470   137.0580 c6         1 IZU       0.222300
     28 C33        120.7450   141.7020   138.5000 c6         1 IZU       0.141300
     29 C34        120.8770   140.1500   138.5890 c3         1 IZU       0.153600
     30 C36        120.0450   142.3110   139.7550 c6         1 IZU       0.106300
     31 C38        119.8800   143.8510   139.5720 c6         1 IZU       0.132300
     32 C40        119.1440   144.1730   138.2360 c6         1 IZU       0.139300
     33 O26        119.4810   141.8020   133.8400 os         1 IZU      -0.628400
     34 O28        121.6390   143.0400   134.5910 o          1 IZU      -0.832500
     35 O29        119.9750   144.2310   133.1780 o          1 IZU      -0.832500
     36 O32        119.9900   142.0260   137.3080 os         1 IZU      -0.438000
     37 O35        121.5850   139.7260   139.7780 oh         1 IZU      -0.752000
     38 O37        120.7920   142.0080   140.9480 oh         1 IZU      -0.755000
     39 O39        119.1660   144.4000   140.6960 oh         1 IZU      -0.684000
     40 O41        117.7590   143.7820   138.3620 oh         1 IZU      -0.704000
     41 P27        120.1980   143.1950   134.2320 p5         1 IZU       1.431400
     42 H101       116.3580   132.3090   137.1560 hc         1 IZU       0.044200
     43 H102       117.3410   133.1160   138.3560 hc         1 IZU       0.044200
     44 H132       113.4730   135.0020   137.0490 hc         1 IZU       0.034700
     45 H131       114.3340   134.7180   135.5330 hc         1 IZU       0.034700
     46 H133       114.2250   133.4320   136.7470 hc         1 IZU       0.034700
     47 H151       117.7190   135.8020   138.8870 hc         1 IZU       0.036200
     48 H152       116.6340   136.5750   140.0120 hc         1 IZU       0.036200
     49 H202       119.1380   136.9600   134.6730 hc         1 IZU       0.032200
     50 H201       120.6890   136.7970   135.4700 hc         1 IZU       0.032200
     51 H212       120.9890   139.2720   135.4850 hc         1 IZU       0.056200
     52 H211       119.3590   139.4830   134.8710 hc         1 IZU       0.056200
     53 H221       120.0090   138.3420   132.7360 hc         1 IZU       0.055700
     54 H241       121.4990   140.1010   131.7970 hc         1 IZU       0.026200
     55 H242       121.8200   140.7220   133.3980 hc         1 IZU       0.026200
     56 H012       124.6660   129.2260   135.2140 hc         1 IZU       0.037700
     57 H011       124.2460   127.6450   135.8950 hc         1 IZU       0.037700
     58 H013       123.7850   128.0460   134.2360 hc         1 IZU       0.037700
     59 H031       123.4880   130.3600   137.2090 hc         1 IZU       0.037700
     60 H032       121.7830   130.0580   137.5270 hc         1 IZU       0.037700
     61 H033       122.9760   128.8060   137.8840 hc         1 IZU       0.037700
     62 H041       121.4660   128.5840   134.0230 ha         1 IZU       0.161000
     63 H051       119.3060   128.9420   134.9100 hc         1 IZU       0.044200
     64 H052       119.9000   129.3570   136.5000 hc         1 IZU       0.044200
     65 H062       120.7180   131.5700   135.5930 hc         1 IZU       0.044200
     66 H061       120.0140   131.1870   134.0380 hc         1 IZU       0.044200
     67 H081       116.4540   131.6720   134.9860 hc         1 IZU       0.035700
     68 H082       117.5840   131.4370   133.6600 hc         1 IZU       0.035700
     69 H083       117.2090   130.0960   134.7530 hc         1 IZU       0.035700
     70 H2         119.3690   132.6110   137.2500 ha         1 IZU       0.166000
     71 H111       116.7610   134.2280   135.5550 hc         1 IZU       0.049700
     72 H112       117.7570   134.9990   136.7550 hc         1 IZU       0.049700
     73 H4         114.7160   136.3530   138.5710 ha         1 IZU       0.165000
     74 H162       118.0980   138.2410   139.1120 hc         1 IZU       0.044700
     75 H161       116.4900   138.5960   138.5300 hc         1 IZU       0.044700
     76 H181       116.4300   139.2380   136.1350 hc         1 IZU       0.048367
     77 H182       117.2230   138.2170   134.9410 hc         1 IZU       0.048367
     78 H183       115.9720   137.5380   135.9750 hc         1 IZU       0.048367
     79 H191       119.8140   137.3000   137.5710 ha         1 IZU       0.148000
     80 H231       121.8370   136.8730   133.4810 hc         1 IZU       0.018367
     81 H233       122.4380   137.9440   132.2140 hc         1 IZU       0.018367
     82 H232       122.8420   138.2770   133.9110 hc         1 IZU       0.018367
     83 H252       118.9590   140.5190   132.2770 h1         1 IZU       0.025200
     84 H251       120.0170   141.8590   131.8270 h1         1 IZU       0.025200
     85 H302       118.9360   144.6770   135.5430 hc         1 IZU       0.071200
     86 H301       118.2730   143.0500   135.6410 hc         1 IZU       0.071200
     87 H311       120.9120   143.8650   136.9910 h1         1 IZU       0.049700
     88 H331       121.7550   142.1250   138.4000 h1         1 IZU       0.060700
     89 H341       119.8690   139.7170   138.5710 h1         1 IZU       0.047700
     90 H342       121.4050   139.8020   137.6910 h1         1 IZU       0.047700
     91 H361       119.0440   141.8570   139.8250 h1         1 IZU       0.054700
     92 H381       120.8850   144.2970   139.5200 h1         1 IZU       0.049700
     93 H401       119.2070   145.2580   138.0640 h1         1 IZU       0.046700
     94 H351       121.7720   138.7610   139.6730 ho         1 IZU       0.504000
     95 H371       121.1930   141.1110   140.7470 ho         1 IZU       0.530000
     96 H391       119.5410   143.9310   141.4780 ho         1 IZU       0.457000
     97 H411       117.5500   143.9710   139.3070 ho         1 IZU       0.500000
@<TRIPOS>BOND
     1     1    17 1   
     2     1    18 1   
     3     1    42 1   
     4     1    43 1   
     5     2    19 1   
     6     2    44 1   
     7     2    45 1   
     8     2    46 1   
     9     3    20 1   
    10     3    21 1   
    11     3    47 1   
    12     3    48 1   
    13     4    21 1   
    14     4    22 1   
    15     4    23 2   
    16     5     6 1   
    17     5    23 1   
    18     5    49 1   
    19     5    50 1   
    20     6     7 1   
    21     6    51 1   
    22     6    52 1   
    23     7     8 1   
    24     7    24 1   
    25     7    53 1   
    26     8    25 1   
    27     8    54 1   
    28     8    55 1   
    29     9    10 1   
    30     9    56 1   
    31     9    57 1   
    32     9    58 1   
    33    10    11 1   
    34    10    12 2   
    35    11    59 1   
    36    11    60 1   
    37    11    61 1   
    38    12    13 1   
    39    12    62 1   
    40    13    14 1   
    41    13    63 1   
    42    13    64 1   
    43    14    15 1   
    44    14    65 1   
    45    14    66 1   
    46    15    16 1   
    47    15    17 2   
    48    16    67 1   
    49    16    68 1   
    50    16    69 1   
    51    17    70 1   
    52    18    19 1   
    53    18    71 1   
    54    18    72 1   
    55    19    20 2   
    56    20    73 1   
    57    21    74 1   
    58    21    75 1   
    59    22    76 1   
    60    22    77 1   
    61    22    78 1   
    62    23    79 1   
    63    24    80 1   
    64    24    81 1   
    65    24    82 1   
    66    25    33 1   
    67    25    83 1   
    68    25    84 1   
    69    26    27 1   
    70    26    41 1   
    71    26    85 1   
    72    26    86 1   
    73    27    32 1   
    74    27    36 1   
    75    27    87 1   
    76    28    29 1   
    77    28    30 1   
    78    28    36 1   
    79    28    88 1   
    80    29    37 1   
    81    29    89 1   
    82    29    90 1   
    83    30    31 1   
    84    30    38 1   
    85    30    91 1   
    86    31    32 1   
    87    31    39 1   
    88    31    92 1   
    89    32    40 1   
    90    32    93 1   
    91    33    41 1   
    92    34    41 1   
    93    35    41 1   
    94    37    94 1   
    95    38    95 1   
    96    39    96 1   
    97    40    97 1   
@<TRIPOS>SUBSTRUCTURE
     1 IZU         1 TEMP              0 ****  ****    0 ROOT
