@<TRIPOS>MOLECULE
IZV
   30    32     1     0     0
SMALL
No Charge or Current Charge


@<TRIPOS>ATOM
      1 C10        179.0000   168.8170   152.3370 ca         1 IZV      -0.212500
      2 C11        179.2630   170.1930   152.2800 ca         1 IZV       0.364000
      3 C13        177.6160   170.6390   150.3530 c3         1 IZV       0.220100
      4 C14        180.1930   170.7500   153.1640 ca         1 IZV      -0.212500
      5 C15        180.8590   169.9440   154.1020 ca         1 IZV      -0.020000
      6 C17        182.1720   165.9350   156.5610 ca         1 IZV      -0.148000
      7 C02        183.5380   164.9760   158.3090 ca         1 IZV       0.143100
      8 C03        184.0680   166.2530   158.5740 ca         1 IZV      -0.201000
      9 C04        183.6400   167.3680   157.8210 ca         1 IZV      -0.018000
     10 C05        182.6810   167.1970   156.8060 ca         1 IZV       0.068400
     11 N06        182.2020   168.2380   156.0150 nc         1 IZV      -0.547100
     12 C07        181.3080   167.7020   155.1630 cd         1 IZV       0.484800
     13 C08        180.6030   168.5540   154.1710 ca         1 IZV      -0.196900
     14 C09        179.6610   168.0020   153.2720 ca         1 IZV      -0.020000
     15 N12        178.6210   171.0230   151.3620 nu         1 IZV      -0.980200
     16 S16        180.9980   165.9430   155.2630 ss         1 IZV       0.000800
     17 C18        182.5800   164.8090   157.2940 ca         1 IZV      -0.114000
     18 H1         178.2820   168.3650   151.6590 ha         1 IZV       0.113000
     19 H2         177.2950   171.5170   149.7770 h1         1 IZV       0.036367
     20 H3         178.0340   169.9010   149.6540 h1         1 IZV       0.036367
     21 H4         176.7320   170.2000   150.8370 h1         1 IZV       0.036367
     22 H5         180.4050   171.8150   153.1290 ha         1 IZV       0.113000
     23 H6         181.5760   170.4120   154.7740 ha         1 IZV       0.122000
     24 H7         184.6140   164.2040   159.6910 ho         1 IZV       0.466000
     25 H8         184.8100   166.3920   159.3570 ha         1 IZV       0.116000
     26 H9         184.0480   168.3550   158.0230 ha         1 IZV       0.130000
     27 H10        179.4270   166.9400   153.2820 ha         1 IZV       0.122000
     28 H11        178.8840   172.0110   151.4020 hn         1 IZV       0.492000
     29 H12        182.1650   163.8260   157.0820 ha         1 IZV       0.138000
     30 O01        183.9510   163.8990   159.0350 oh         1 IZV      -0.533100
@<TRIPOS>BOND
     1     1     2 ar  
     2     1    14 ar  
     3     1    18 1   
     4     2     4 ar  
     5     2    15 1   
     6     3    15 1   
     7     3    19 1   
     8     3    20 1   
     9     3    21 1   
    10     4     5 ar  
    11     4    22 1   
    12     5    13 ar  
    13     5    23 1   
    14     6    10 ar  
    15     6    16 1   
    16     6    17 ar  
    17     7     8 ar  
    18     7    17 ar  
    19     7    30 1   
    20     8     9 ar  
    21     8    25 1   
    22     9    10 ar  
    23     9    26 1   
    24    10    11 1   
    25    11    12 2   
    26    12    13 1   
    27    12    16 1   
    28    13    14 ar  
    29    14    27 1   
    30    15    28 1   
    31    17    29 1   
    32    24    30 1   
@<TRIPOS>SUBSTRUCTURE
     1 IZV         1 TEMP              0 ****  ****    0 ROOT
