@<TRIPOS>MOLECULE
IZV
   30    32     1     0     0
SMALL
bcc


@<TRIPOS>ATOM
      1 C10        179.0170   168.8330   152.3530 ca         1 IZV      -0.230500
      2 C11        179.2680   170.2150   152.2800 ca         1 IZV       0.225600
      3 C13        177.6480   170.5530   150.4550 c3         1 IZV       0.220100
      4 C14        180.2220   170.7540   153.1700 ca         1 IZV      -0.230500
      5 C15        180.8810   169.9560   154.0730 ca         1 IZV      -0.038000
      6 C17        182.1850   165.9340   156.5230 ca         1 IZV      -0.021100
      7 C02        183.4970   165.0080   158.2760 ca         1 IZV       0.143100
      8 C03        184.0140   166.2840   158.5450 ca         1 IZV      -0.219000
      9 C04        183.6170   167.3810   157.8060 ca         1 IZV      -0.036000
     10 C05        182.6880   167.2200   156.7800 ca         1 IZV       0.068400
     11 N06        182.1920   168.2140   155.9750 nc         1 IZV      -0.547100
     12 C07        181.3370   167.7630   155.1210 cd         1 IZV       0.484800
     13 C08        180.6320   168.5770   154.1480 ca         1 IZV      -0.196900
     14 C09        179.6880   168.0450   153.2670 ca         1 IZV      -0.038000
     15 N12        178.6290   171.0150   151.3990 nu         1 IZV      -0.786600
     16 S16        181.0550   166.0230   155.2170 ss         1 IZV      -0.126100
     17 C18        182.5740   164.8220   157.2540 ca         1 IZV      -0.132000
     18 H1         178.2940   168.3700   151.6960 ha         1 IZV       0.131000
     19 H2         177.3150   171.3990   149.8600 h1         1 IZV       0.036367
     20 H3         178.0540   169.8010   149.7740 h1         1 IZV       0.036367
     21 H4         176.7720   170.1220   150.9480 h1         1 IZV       0.036367
     22 H5         180.4380   171.8160   153.1370 ha         1 IZV       0.131000
     23 H6         181.6060   170.4040   154.7400 ha         1 IZV       0.140000
     24 H7         184.5010   164.1570   159.6670 ho         1 IZV       0.427000
     25 H8         184.7350   166.4130   159.3450 ha         1 IZV       0.134000
     26 H9         184.0200   168.3620   158.0230 ha         1 IZV       0.148000
     27 H10        179.4540   166.9870   153.2830 ha         1 IZV       0.140000
     28 H11        178.8570   171.9940   151.4000 hn         1 IZV       0.436800
     29 H12        182.1750   163.8380   157.0480 ha         1 IZV       0.156000
     30 O01        183.8610   163.9210   158.9860 oh         1 IZV      -0.494100
@<TRIPOS>BOND
     1     1     2 ar  
     2     1    14 ar  
     3     1    18 1   
     4     2     4 ar  
     5     2    15 1   
     6     3    15 1   
     7     3    19 1   
     8     3    20 1   
     9     3    21 1   
    10     4     5 ar  
    11     4    22 1   
    12     5    13 ar  
    13     5    23 1   
    14     6    10 ar  
    15     6    16 1   
    16     6    17 ar  
    17     7     8 ar  
    18     7    17 ar  
    19     7    30 1   
    20     8     9 ar  
    21     8    25 1   
    22     9    10 ar  
    23     9    26 1   
    24    10    11 1   
    25    11    12 2   
    26    12    13 1   
    27    12    16 1   
    28    13    14 ar  
    29    14    27 1   
    30    15    28 1   
    31    17    29 1   
    32    24    30 1   
@<TRIPOS>SUBSTRUCTURE
     1 IZV         1 TEMP              0 ****  ****    0 ROOT
