@<TRIPOS>MOLECULE
IZW
   43    46     1     0     0
SMALL
No Charge or Current Charge


@<TRIPOS>ATOM
      1 C1          95.5350   -12.7780    10.2730 ca         1 IZW      -0.222000
      2 C2          96.4180   -13.7930     9.8780 ca         1 IZW      -0.060000
      3 C3          96.2270   -14.4530     8.6580 ca         1 IZW      -0.140000
      4 C4          94.4460   -12.4130     9.4450 ca         1 IZW       0.184100
      5 C5          94.2380   -13.0760     8.2000 ca         1 IZW       0.244000
      6 C6          95.1500   -14.1020     7.8240 ca         1 IZW      -0.048000
      7 C7          94.9740   -14.7750     6.6020 ca         1 IZW      -0.075000
      8 C8          93.8940   -14.4090     5.7860 ca         1 IZW      -0.155000
      9 C9          93.0330   -13.3900     6.2150 ca         1 IZW       0.333900
     10 N10         93.1950   -12.7370     7.3890 nb         1 IZW      -0.631000
     11 O11         93.5630   -11.4100     9.8240 os         1 IZW      -0.319100
     12 C12         93.6960   -10.6860    11.0580 c3         1 IZW       0.161600
     13 C13         92.5480    -9.6650    11.1230 c3         1 IZW      -0.095700
     14 C14         92.6050    -8.8200    12.3650 cc         1 IZW       0.236300
     15 N15         92.1430    -9.2760    13.5650 nc         1 IZW      -0.680000
     16 C16         93.0860    -7.5480    12.5270 cd         1 IZW       0.120300
     17 C17         92.3700    -8.2550    14.3850 cd         1 IZW       0.506500
     18 C18         92.0540    -8.2200    15.8290 ca         1 IZW      -0.135500
     19 O19         92.9500    -7.1510    13.8180 os         1 IZW      -0.258000
     20 C20         93.7060    -6.6010    11.5360 c3         1 IZW      -0.118400
     21 C21         92.3400    -7.0750    16.6070 ca         1 IZW      -0.073000
     22 C22         91.4460    -8.1650    18.5940 ca         1 IZW      -0.091000
     23 C23         91.1570    -9.3080    17.8320 ca         1 IZW      -0.119000
     24 C24         92.0370    -7.0490    17.9800 ca         1 IZW      -0.119000
     25 C25         91.4580    -9.3370    16.4590 ca         1 IZW      -0.073000
     26 H1          95.7110   -12.2870    11.2250 ha         1 IZW       0.122000
     27 H2          97.2530   -14.0690    10.5200 ha         1 IZW       0.113000
     28 H3          96.9180   -15.2390     8.3610 ha         1 IZW       0.117000
     29 H4          95.6570   -15.5630     6.2910 ha         1 IZW       0.119000
     30 H5          93.7210   -14.9040     4.8340 ha         1 IZW       0.122000
     31 H6          92.1850   -13.0840     5.6030 h4         1 IZW       0.019100
     32 H7          93.6310   -11.3650    11.9180 h1         1 IZW       0.044200
     33 H8          94.6580   -10.1570    11.0970 h1         1 IZW       0.044200
     34 H9          92.5880    -9.0220    10.2360 hc         1 IZW       0.069700
     35 H10         91.5910   -10.1980    11.0840 hc         1 IZW       0.069700
     36 H11         92.9650    -6.2630    10.8020 hc         1 IZW       0.058367
     37 H12         94.1150    -5.7140    12.0340 hc         1 IZW       0.058367
     38 H13         94.5240    -7.0860    10.9900 hc         1 IZW       0.058367
     39 H14         92.7990    -6.1980    16.1540 ha         1 IZW       0.130500
     40 H15         91.2120    -8.1430    19.6560 ha         1 IZW       0.115000
     41 H16         90.6980   -10.1740    18.3050 ha         1 IZW       0.117000
     42 H17         92.2620    -6.1620    18.5690 ha         1 IZW       0.117000
     43 H18         91.2260   -10.2330    15.8860 ha         1 IZW       0.130500
@<TRIPOS>BOND
     1     1     2 ar  
     2     1     4 ar  
     3     1    26 1   
     4     2     3 ar  
     5     2    27 1   
     6     3     6 ar  
     7     3    28 1   
     8     4     5 ar  
     9     4    11 1   
    10     5     6 ar  
    11     5    10 ar  
    12     6     7 ar  
    13     7     8 ar  
    14     7    29 1   
    15     8     9 ar  
    16     8    30 1   
    17     9    10 ar  
    18     9    31 1   
    19    11    12 1   
    20    12    13 1   
    21    12    32 1   
    22    12    33 1   
    23    13    14 1   
    24    13    34 1   
    25    13    35 1   
    26    14    15 1   
    27    14    16 2   
    28    15    17 2   
    29    16    19 1   
    30    16    20 1   
    31    17    18 1   
    32    17    19 1   
    33    18    21 ar  
    34    18    25 ar  
    35    20    36 1   
    36    20    37 1   
    37    20    38 1   
    38    21    24 ar  
    39    21    39 1   
    40    22    23 ar  
    41    22    24 ar  
    42    22    40 1   
    43    23    25 ar  
    44    23    41 1   
    45    24    42 1   
    46    25    43 1   
@<TRIPOS>SUBSTRUCTURE
     1 IZW         1 TEMP              0 ****  ****    0 ROOT
