@<TRIPOS>MOLECULE
IZW
   43    46     1     0     0
SMALL
abcg2


@<TRIPOS>ATOM
      1 C1          95.4440   -12.7180    10.4540 ca         1 IZW      -0.222000
      2 C2          96.2070   -13.8760    10.1970 ca         1 IZW      -0.060000
      3 C3          96.0220   -14.6110     9.0620 ca         1 IZW      -0.140000
      4 C4          94.4890   -12.2980     9.5590 ca         1 IZW       0.184100
      5 C5          94.2720   -13.0420     8.3570 ca         1 IZW       0.244000
      6 C6          95.0490   -14.2020     8.1220 ca         1 IZW      -0.048000
      7 C7          94.8010   -14.9140     6.9280 ca         1 IZW      -0.075000
      8 C8          93.8440   -14.4660     6.0630 ca         1 IZW      -0.155000
      9 C9          93.1310   -13.2980     6.3960 ca         1 IZW       0.333900
     10 N10         93.3290   -12.6130     7.4900 nb         1 IZW      -0.631000
     11 O11         93.7130   -11.2190     9.7190 os         1 IZW      -0.319100
     12 C12         93.8050   -10.4820    10.9260 c3         1 IZW       0.161600
     13 C13         92.7420    -9.3970    10.8780 c3         1 IZW      -0.095700
     14 C14         92.7050    -8.6240    12.1500 cc         1 IZW       0.236300
     15 N15         92.3490    -9.2170    13.3440 nc         1 IZW      -0.680000
     16 C16         92.9870    -7.3200    12.3790 cd         1 IZW       0.120300
     17 C17         92.4240    -8.2790    14.2260 cd         1 IZW       0.506500
     18 C18         92.1480    -8.3670    15.6530 ca         1 IZW      -0.135500
     19 O19         92.8030    -7.1030    13.7090 os         1 IZW      -0.258000
     20 C20         93.4090    -6.1840    11.5330 c3         1 IZW      -0.118400
     21 C21         92.2960    -7.2640    16.4940 ca         1 IZW      -0.073000
     22 C22         91.6140    -8.5970    18.3800 ca         1 IZW      -0.091000
     23 C23         91.4640    -9.6980    17.5440 ca         1 IZW      -0.119000
     24 C24         92.0280    -7.3830    17.8500 ca         1 IZW      -0.119000
     25 C25         91.7280    -9.5860    16.1900 ca         1 IZW      -0.073000
     26 H1          95.6310   -12.1720    11.3690 ha         1 IZW       0.122000
     27 H2          96.9500   -14.1760    10.9250 ha         1 IZW       0.113000
     28 H3          96.6080   -15.5000     8.8690 ha         1 IZW       0.117000
     29 H4          95.3750   -15.8070     6.7140 ha         1 IZW       0.119000
     30 H5          93.6280   -14.9860     5.1390 ha         1 IZW       0.122000
     31 H6          92.3670   -12.9280     5.7210 h4         1 IZW       0.019100
     32 H7          93.6380   -11.1370    11.7870 h1         1 IZW       0.044200
     33 H8          94.8000   -10.0370    11.0320 h1         1 IZW       0.044200
     34 H9          92.9340    -8.7250    10.0400 hc         1 IZW       0.069700
     35 H10         91.7660    -9.8580    10.7050 hc         1 IZW       0.069700
     36 H11         92.6730    -5.3780    11.5420 hc         1 IZW       0.058367
     37 H12         94.3620    -5.7660    11.8630 hc         1 IZW       0.058367
     38 H13         93.5290    -6.5150    10.5040 hc         1 IZW       0.058367
     39 H14         92.6190    -6.3090    16.1010 ha         1 IZW       0.130500
     40 H15         91.4080    -8.6860    19.4380 ha         1 IZW       0.115000
     41 H16         91.1390   -10.6470    17.9500 ha         1 IZW       0.117000
     42 H17         92.1460    -6.5220    18.4940 ha         1 IZW       0.117000
     43 H18         91.6090   -10.4450    15.5420 ha         1 IZW       0.130500
@<TRIPOS>BOND
     1     1     2 ar  
     2     1     4 ar  
     3     1    26 1   
     4     2     3 ar  
     5     2    27 1   
     6     3     6 ar  
     7     3    28 1   
     8     4     5 ar  
     9     4    11 1   
    10     5     6 ar  
    11     5    10 ar  
    12     6     7 ar  
    13     7     8 ar  
    14     7    29 1   
    15     8     9 ar  
    16     8    30 1   
    17     9    10 ar  
    18     9    31 1   
    19    11    12 1   
    20    12    13 1   
    21    12    32 1   
    22    12    33 1   
    23    13    14 1   
    24    13    34 1   
    25    13    35 1   
    26    14    15 1   
    27    14    16 2   
    28    15    17 2   
    29    16    19 1   
    30    16    20 1   
    31    17    18 1   
    32    17    19 1   
    33    18    21 ar  
    34    18    25 ar  
    35    20    36 1   
    36    20    37 1   
    37    20    38 1   
    38    21    24 ar  
    39    21    39 1   
    40    22    23 ar  
    41    22    24 ar  
    42    22    40 1   
    43    23    25 ar  
    44    23    41 1   
    45    24    42 1   
    46    25    43 1   
@<TRIPOS>SUBSTRUCTURE
     1 IZW         1 TEMP              0 ****  ****    0 ROOT
