@<TRIPOS>MOLECULE
IZY
   95    95     1     0     0
SMALL
No Charge or Current Charge


@<TRIPOS>ATOM
      1 C10        115.4700   130.5310   135.5290 c3         1 IZY      -0.038200
      2 C13        113.5960   132.7900   134.1680 c3         1 IZY      -0.049900
      3 C15        114.8260   135.3430   135.5320 c3         1 IZY      -0.040200
      4 C17        114.2540   137.6450   134.5810 c2         1 IZY      -0.153400
      5 C20        116.3540   138.8910   135.3620 c3         1 IZY      -0.056200
      6 C21        117.1950   139.3770   134.1570 c3         1 IZY      -0.059400
      7 C22        118.7320   139.4650   134.3940 c3         1 IZY      -0.059700
      8 C24        119.1440   140.4340   135.5380 c3         1 IZY      -0.086400
      9 C01        118.7140   125.7920   132.6040 c3         1 IZY      -0.054900
     10 C03        120.6850   124.4280   133.3930 c3         1 IZY      -0.054900
     11 C04        120.2000   126.6280   134.5010 c2         1 IZY      -0.219200
     12 C05        119.5000   127.9500   134.7640 c3         1 IZY      -0.037200
     13 C06        118.3350   127.8050   135.7670 c3         1 IZY      -0.036200
     14 C07        117.5590   129.0980   135.9740 c2         1 IZY      -0.115400
     15 C08        118.2650   130.0750   136.9070 c3         1 IZY      -0.054900
     16 C09        116.3670   129.3140   135.3860 c2         1 IZY      -0.219200
     17 C11        115.8390   131.6470   134.5270 c3         1 IZY      -0.034200
     18 C12        115.0150   132.9140   134.7110 c2         1 IZY      -0.129400
     19 C14        115.5300   134.0230   135.2770 c2         1 IZY      -0.205200
     20 C16        114.9340   136.3040   134.3290 c3         1 IZY      -0.031200
     21 C18        112.7630   137.6200   134.2860 c3         1 IZY      -0.045900
     22 C19        114.8840   138.7550   135.0080 c2         1 IZY      -0.187200
     23 C23        119.3720   138.0690   134.5920 c3         1 IZY      -0.084100
     24 C25        118.6400   141.8870   135.3530 c3         1 IZY       0.231600
     25 C31        121.5260   141.9010   138.1480 c6         1 IZY       0.464300
     26 C33        123.6770   140.8650   137.7280 c6         1 IZY       0.188300
     27 C34        124.3210   139.4740   137.4080 c3         1 IZY       0.170600
     28 C36        124.3270   141.5500   138.9720 c6         1 IZY       0.138300
     29 C38        123.5850   142.8830   139.2920 c6         1 IZY       0.081300
     30 C40        122.0520   142.6510   139.4430 c6         1 IZY       0.111300
     31 O26        119.2760   142.7800   136.2820 os         1 IZY      -0.600400
     32 O28        119.3810   143.9870   138.5300 o          1 IZY      -0.810500
     33 O29        117.6770   142.2390   138.2110 o          1 IZY      -0.810500
     34 O30        120.1460   141.5470   138.2100 os         1 IZY      -0.559400
     35 O32        122.2590   140.6710   137.9680 os         1 IZY      -0.457000
     36 O37        125.7260   141.8260   138.7800 oh         1 IZY      -0.728000
     37 O39        124.1310   143.4800   140.4880 oh         1 IZY      -0.684000
     38 O41        121.8150   141.9320   140.6770 oh         1 IZY      -0.672000
     39 P27        119.0620   142.6840   137.8800 p5         1 IZY       1.400800
     40 H101       114.4260   130.2330   135.3770 hc         1 IZY       0.046200
     41 H102       115.5190   130.9330   136.5470 hc         1 IZY       0.046200
     42 H132       113.0480   133.7370   134.1900 hc         1 IZY       0.035700
     43 H133       113.6040   132.4550   133.1240 hc         1 IZY       0.035700
     44 H131       113.0110   132.0640   134.7450 hc         1 IZY       0.035700
     45 H152       113.7700   135.1790   135.7740 hc         1 IZY       0.046700
     46 H151       115.2600   135.8270   136.4160 hc         1 IZY       0.046700
     47 H201       116.7470   137.9350   135.7250 hc         1 IZY       0.055200
     48 H202       116.4610   139.5950   136.1960 hc         1 IZY       0.055200
     49 H211       117.0140   138.7030   133.3110 hc         1 IZY       0.036200
     50 H212       116.8200   140.3570   133.8380 hc         1 IZY       0.036200
     51 H221       119.1620   139.8690   133.4690 hc         1 IZY       0.040700
     52 H241       118.7840   140.0340   136.4930 hc         1 IZY       0.048200
     53 H242       120.2390   140.4530   135.5950 hc         1 IZY       0.048200
     54 H012       118.0920   126.6790   132.7650 hc         1 IZY       0.037367
     55 H013       119.0670   125.8240   131.5670 hc         1 IZY       0.037367
     56 H011       118.0570   124.9200   132.7050 hc         1 IZY       0.037367
     57 H031       121.5270   124.3720   134.0940 hc         1 IZY       0.037367
     58 H033       120.0610   123.5420   133.5600 hc         1 IZY       0.037367
     59 H032       121.0980   124.3610   132.3790 hc         1 IZY       0.037367
     60 H2         121.0600   126.4630   135.1520 ha         1 IZY       0.162000
     61 H052       120.2270   128.6760   135.1490 hc         1 IZY       0.047200
     62 H051       119.1180   128.3800   133.8310 hc         1 IZY       0.047200
     63 H062       117.6610   127.0260   135.3890 hc         1 IZY       0.042200
     64 H061       118.7180   127.4280   136.7230 hc         1 IZY       0.042200
     65 H083       117.7120   131.0100   137.0440 hc         1 IZY       0.040700
     66 H082       118.4070   129.6340   137.9010 hc         1 IZY       0.040700
     67 H081       119.2540   130.3490   136.5230 hc         1 IZY       0.040700
     68 H4         115.9450   128.5480   134.7320 ha         1 IZY       0.161000
     69 H112       116.9040   131.8760   134.6530 hc         1 IZY       0.042200
     70 H111       115.7360   131.2670   133.5030 hc         1 IZY       0.042200
     71 H6         116.5640   134.0170   135.6260 ha         1 IZY       0.165000
     72 H161       115.9970   136.4480   134.1020 hc         1 IZY       0.042200
     73 H162       114.5120   135.8220   133.4390 hc         1 IZY       0.042200
     74 H183       112.2970   138.5960   134.4670 hc         1 IZY       0.031700
     75 H181       112.5710   137.3550   133.2390 hc         1 IZY       0.031700
     76 H182       112.2440   136.8880   134.9160 hc         1 IZY       0.031700
     77 H191       114.3180   139.6770   135.1540 ha         1 IZY       0.177000
     78 H233       120.4660   138.1460   134.5990 hc         1 IZY       0.022700
     79 H232       119.0600   137.6180   135.5400 hc         1 IZY       0.022700
     80 H231       119.0880   137.3920   133.7770 hc         1 IZY       0.022700
     81 H252       118.8670   142.2110   134.3280 h1         1 IZY       0.020700
     82 H251       117.5490   141.9190   135.4740 h1         1 IZY       0.020700
     83 H311       121.6970   142.5390   137.2670 h2         1 IZY       0.045700
     84 H331       123.8030   141.5110   136.8470 h1         1 IZY       0.055700
     85 H341       124.2470   138.8480   138.3070 h1         1 IZY       0.025200
     86 H361       124.2030   140.8710   139.8300 h1         1 IZY       0.057700
     87 H381       123.7360   143.5630   138.4390 h1         1 IZY       0.049700
     88 H401       121.5870   143.6430   139.5000 h1         1 IZY       0.041700
     89 H351       124.1370   137.9170   136.2180 ho         1 IZY       0.490000
     90 H371       125.9410   142.4960   139.4740 ho         1 IZY       0.509000
     91 H391       123.8850   144.4340   140.4810 ho         1 IZY       0.445000
     92 H411       122.5380   142.2320   141.2760 ho         1 IZY       0.484000
     93 O35        123.7100   138.8010   136.2890 oh         1 IZY      -0.698000
     94 C02        119.8840   125.7040   133.5740 c2         1 IZY      -0.117400
     95 H342       125.3900   139.6280   137.2070 h1         1 IZY       0.025200
@<TRIPOS>BOND
     1     1    16 1   
     2     1    17 1   
     3     1    40 1   
     4     1    41 1   
     5     2    18 1   
     6     2    42 1   
     7     2    43 1   
     8     2    44 1   
     9     3    19 1   
    10     3    20 1   
    11     3    45 1   
    12     3    46 1   
    13     4    20 1   
    14     4    21 1   
    15     4    22 2   
    16     5     6 1   
    17     5    22 1   
    18     5    47 1   
    19     5    48 1   
    20     6     7 1   
    21     6    49 1   
    22     6    50 1   
    23     7     8 1   
    24     7    23 1   
    25     7    51 1   
    26     8    24 1   
    27     8    52 1   
    28     8    53 1   
    29     9    54 1   
    30     9    55 1   
    31     9    56 1   
    32     9    94 1   
    33    10    57 1   
    34    10    58 1   
    35    10    59 1   
    36    10    94 1   
    37    11    12 1   
    38    11    60 1   
    39    11    94 2   
    40    12    13 1   
    41    12    61 1   
    42    12    62 1   
    43    13    14 1   
    44    13    63 1   
    45    13    64 1   
    46    14    15 1   
    47    14    16 2   
    48    15    65 1   
    49    15    66 1   
    50    15    67 1   
    51    16    68 1   
    52    17    18 1   
    53    17    69 1   
    54    17    70 1   
    55    18    19 2   
    56    19    71 1   
    57    20    72 1   
    58    20    73 1   
    59    21    74 1   
    60    21    75 1   
    61    21    76 1   
    62    22    77 1   
    63    23    78 1   
    64    23    79 1   
    65    23    80 1   
    66    24    31 1   
    67    24    81 1   
    68    24    82 1   
    69    25    30 1   
    70    25    34 1   
    71    25    35 1   
    72    25    83 1   
    73    26    27 1   
    74    26    28 1   
    75    26    35 1   
    76    26    84 1   
    77    27    85 1   
    78    27    93 1   
    79    27    95 1   
    80    28    29 1   
    81    28    36 1   
    82    28    86 1   
    83    29    30 1   
    84    29    37 1   
    85    29    87 1   
    86    30    38 1   
    87    30    88 1   
    88    31    39 1   
    89    32    39 1   
    90    33    39 1   
    91    34    39 1   
    92    36    90 1   
    93    37    91 1   
    94    38    92 1   
    95    89    93 1   
@<TRIPOS>SUBSTRUCTURE
     1 IZY         1 TEMP              0 ****  ****    0 ROOT
