@<TRIPOS>MOLECULE
IZY
   95    95     1     0     0
SMALL
bcc


@<TRIPOS>ATOM
      1 C10        117.9650   130.7620   136.9000 c3         1 IZY      -0.038200
      2 C13        115.8310   132.7690   138.1840 c3         1 IZY      -0.049900
      3 C15        116.8160   135.4500   136.9040 c3         1 IZY      -0.040200
      4 C17        115.8780   137.7470   136.3900 c2         1 IZY      -0.153400
      5 C20        117.9910   138.6340   135.3120 c3         1 IZY      -0.056200
      6 C21        117.8430   139.2780   133.9320 c3         1 IZY      -0.059400
      7 C22        119.0890   139.1860   133.0410 c3         1 IZY      -0.059700
      8 C24        120.3420   139.8100   133.6610 c3         1 IZY      -0.086400
      9 C01        116.9370   126.2700   131.7260 c3         1 IZY      -0.054900
     10 C03        118.6260   124.4280   131.3990 c3         1 IZY      -0.054900
     11 C04        119.2870   126.4880   132.5940 c2         1 IZY      -0.169200
     12 C05        119.1750   127.8430   133.2200 c3         1 IZY      -0.037200
     13 C06        119.2620   127.7680   134.7520 c3         1 IZY      -0.036200
     14 C07        119.2280   129.1180   135.4210 c2         1 IZY      -0.115400
     15 C08        120.4090   130.0020   135.1440 c3         1 IZY      -0.054900
     16 C09        118.1930   129.4620   136.1930 c2         1 IZY      -0.169200
     17 C11        116.8950   131.6090   136.1910 c3         1 IZY      -0.034200
     18 C12        116.5930   132.9040   136.8990 c2         1 IZY      -0.129400
     19 C14        117.0080   134.0620   136.3770 c2         1 IZY      -0.155200
     20 C16        116.0680   136.3360   135.8950 c3         1 IZY      -0.031200
     21 C18        114.6590   137.9740   137.2340 c3         1 IZY      -0.045900
     22 C19        116.7390   138.7340   136.1280 c2         1 IZY      -0.137200
     23 C23        119.3740   137.7430   132.6320 c3         1 IZY      -0.084100
     24 C25        120.1950   141.2820   133.9890 c3         1 IZY       0.208400
     25 C31        120.8620   142.7060   137.5300 c6         1 IZY       0.417900
     26 C33        120.7470   140.6310   138.6380 c6         1 IZY       0.165100
     27 C34        120.2760   139.2070   138.4300 c3         1 IZY       0.147400
     28 C36        120.1260   141.2540   139.8900 c6         1 IZY       0.115100
     29 C38        120.5400   142.7180   139.9800 c6         1 IZY       0.058100
     30 C40        120.2240   143.4670   138.6850 c6         1 IZY       0.088100
     31 O26        121.4340   141.7570   134.4910 os         1 IZY      -0.577200
     32 O28        122.9850   143.4070   135.5300 o          1 IZY      -0.810500
     33 O29        120.9820   144.2560   134.0640 o          1 IZY      -0.810500
     34 O30        120.5350   143.3070   136.3300 os         1 IZY      -0.536200
     35 O32        120.3890   141.3820   137.4990 os         1 IZY      -0.410600
     36 O37        120.5710   140.5290   141.0110 oh         1 IZY      -0.605800
     37 O39        119.8580   143.2830   141.0800 oh         1 IZY      -0.621800
     38 O41        118.8410   143.5680   138.4700 oh         1 IZY      -0.549800
     39 P27        121.5810   143.2920   135.0350 p5         1 IZY       1.400800
     40 H101       117.6470   130.5570   137.9260 hc         1 IZY       0.046200
     41 H102       118.8840   131.3460   136.9730 hc         1 IZY       0.046200
     42 H132       115.5970   133.7240   138.6500 hc         1 IZY       0.035700
     43 H133       114.8900   132.2410   138.0140 hc         1 IZY       0.035700
     44 H131       116.3880   132.1780   138.9150 hc         1 IZY       0.035700
     45 H152       116.2890   135.4520   137.8590 hc         1 IZY       0.046700
     46 H151       117.7950   135.9030   137.0950 hc         1 IZY       0.046700
     47 H201       118.3010   137.5930   135.2060 hc         1 IZY       0.055200
     48 H202       118.7960   139.1330   135.8560 hc         1 IZY       0.055200
     49 H211       117.0100   138.8000   133.4070 hc         1 IZY       0.036200
     50 H212       117.5490   140.3250   134.0570 hc         1 IZY       0.036200
     51 H221       118.8600   139.7440   132.1260 hc         1 IZY       0.040700
     52 H241       120.6250   139.2660   134.5670 hc         1 IZY       0.048200
     53 H242       121.1720   139.6890   132.9580 hc         1 IZY       0.048200
     54 H012       116.7350   127.2540   132.1430 hc         1 IZY       0.037367
     55 H013       116.7150   126.3080   130.6570 hc         1 IZY       0.037367
     56 H011       116.2220   125.5690   132.1640 hc         1 IZY       0.037367
     57 H031       119.6540   124.1140   131.5810 hc         1 IZY       0.037367
     58 H033       117.9610   123.6800   131.8380 hc         1 IZY       0.037367
     59 H032       118.4500   124.4000   130.3200 hc         1 IZY       0.037367
     60 H2         120.2630   126.0190   132.7030 ha         1 IZY       0.112000
     61 H052       119.9880   128.4700   132.8400 hc         1 IZY       0.047200
     62 H051       118.2460   128.3430   132.9400 hc         1 IZY       0.047200
     63 H062       118.4410   127.1480   135.1190 hc         1 IZY       0.042200
     64 H061       120.1900   127.2520   135.0250 hc         1 IZY       0.042200
     65 H083       120.4450   130.8830   135.7820 hc         1 IZY       0.040700
     66 H082       121.3420   129.4500   135.2820 hc         1 IZY       0.040700
     67 H081       120.4070   130.3530   134.1090 hc         1 IZY       0.040700
     68 H4         117.3900   128.7360   136.3050 ha         1 IZY       0.111000
     69 H112       117.2310   131.8100   135.1710 hc         1 IZY       0.042200
     70 H111       115.9770   131.0170   136.1070 hc         1 IZY       0.042200
     71 H6         117.5440   134.0160   135.4300 ha         1 IZY       0.115000
     72 H161       116.6090   136.3240   134.9460 hc         1 IZY       0.042200
     73 H162       115.0900   135.8880   135.6940 hc         1 IZY       0.042200
     74 H183       114.6090   138.9930   137.6180 hc         1 IZY       0.031700
     75 H181       113.7460   137.7810   136.6650 hc         1 IZY       0.031700
     76 H182       114.6370   137.2930   138.0900 hc         1 IZY       0.031700
     77 H191       116.5190   139.7210   136.5280 ha         1 IZY       0.127000
     78 H233       120.1740   137.6960   131.8900 hc         1 IZY       0.022700
     79 H232       119.6880   137.1350   133.4830 hc         1 IZY       0.022700
     80 H231       118.4900   137.2730   132.1970 hc         1 IZY       0.022700
     81 H252       119.9030   141.8360   133.0890 h1         1 IZY       0.020700
     82 H251       119.4020   141.4290   134.7300 h1         1 IZY       0.020700
     83 H311       121.9530   142.7010   137.6930 h2         1 IZY       0.045700
     84 H331       121.8440   140.6310   138.7630 h1         1 IZY       0.055700
     85 H341       119.1920   139.2180   138.2450 h1         1 IZY       0.025200
     86 H361       119.0300   141.1990   139.7950 h1         1 IZY       0.057700
     87 H381       121.6280   142.7500   140.1340 h1         1 IZY       0.049700
     88 H401       120.6960   144.4610   138.7370 h1         1 IZY       0.041700
     89 H351       120.6240   137.7700   137.1770 ho         1 IZY       0.391000
     90 H371       120.2070   140.9460   141.7980 ho         1 IZY       0.410000
     91 H391       120.3210   144.0780   141.3610 ho         1 IZY       0.406000
     92 H411       118.4450   143.8630   139.2970 ho         1 IZY       0.385000
     93 O35        120.9870   138.6430   137.3530 oh         1 IZY      -0.575800
     94 C02        118.3410   125.7930   131.9560 c2         1 IZY      -0.117400
     95 H342       120.4400   138.6440   139.3550 h1         1 IZY       0.025200
@<TRIPOS>BOND
     1     1    16 1   
     2     1    17 1   
     3     1    40 1   
     4     1    41 1   
     5     2    18 1   
     6     2    42 1   
     7     2    43 1   
     8     2    44 1   
     9     3    19 1   
    10     3    20 1   
    11     3    45 1   
    12     3    46 1   
    13     4    20 1   
    14     4    21 1   
    15     4    22 2   
    16     5     6 1   
    17     5    22 1   
    18     5    47 1   
    19     5    48 1   
    20     6     7 1   
    21     6    49 1   
    22     6    50 1   
    23     7     8 1   
    24     7    23 1   
    25     7    51 1   
    26     8    24 1   
    27     8    52 1   
    28     8    53 1   
    29     9    54 1   
    30     9    55 1   
    31     9    56 1   
    32     9    94 1   
    33    10    57 1   
    34    10    58 1   
    35    10    59 1   
    36    10    94 1   
    37    11    12 1   
    38    11    60 1   
    39    11    94 2   
    40    12    13 1   
    41    12    61 1   
    42    12    62 1   
    43    13    14 1   
    44    13    63 1   
    45    13    64 1   
    46    14    15 1   
    47    14    16 2   
    48    15    65 1   
    49    15    66 1   
    50    15    67 1   
    51    16    68 1   
    52    17    18 1   
    53    17    69 1   
    54    17    70 1   
    55    18    19 2   
    56    19    71 1   
    57    20    72 1   
    58    20    73 1   
    59    21    74 1   
    60    21    75 1   
    61    21    76 1   
    62    22    77 1   
    63    23    78 1   
    64    23    79 1   
    65    23    80 1   
    66    24    31 1   
    67    24    81 1   
    68    24    82 1   
    69    25    30 1   
    70    25    34 1   
    71    25    35 1   
    72    25    83 1   
    73    26    27 1   
    74    26    28 1   
    75    26    35 1   
    76    26    84 1   
    77    27    85 1   
    78    27    93 1   
    79    27    95 1   
    80    28    29 1   
    81    28    36 1   
    82    28    86 1   
    83    29    30 1   
    84    29    37 1   
    85    29    87 1   
    86    30    38 1   
    87    30    88 1   
    88    31    39 1   
    89    32    39 1   
    90    33    39 1   
    91    34    39 1   
    92    36    90 1   
    93    37    91 1   
    94    38    92 1   
    95    89    93 1   
@<TRIPOS>SUBSTRUCTURE
     1 IZY         1 TEMP              0 ****  ****    0 ROOT
