@<TRIPOS>MOLECULE
IZZ
   44    46     1     0     0
SMALL
No Charge or Current Charge


@<TRIPOS>ATOM
      1 OAR          5.1230    -0.3590     1.8720 oh         1 IZZ      -0.668000
      2 CAT          3.8310    -1.0000     1.9440 c3         1 IZZ       0.133600
      3 CAM          2.9890    -0.7730     0.6440 c3         1 IZZ       0.239500
      4 CAO          3.5960    -1.4300    -0.6430 c3         1 IZZ      -0.063700
      5 CAW          3.8630    -2.9480    -0.4740 c3         1 IZZ      -0.087600
      6 CAV          2.7150    -1.1990    -1.9010 c3         1 IZZ      -0.087600
      7 NAJ          2.8280     0.6870     0.4480 nu         1 IZZ      -0.920100
      8 CAG          1.6700     1.3900     0.2730 cc         1 IZZ       0.589900
      9 CAK          1.8270     2.8170     0.2970 cc         1 IZZ      -0.204000
     10 CAI          0.7230     3.6150     0.1370 cd         1 IZZ       0.009000
     11 NAC          0.5560     0.6890     0.1020 nd         1 IZZ      -0.590800
     12 NAA         -0.5350     1.5160    -0.0870 na         1 IZZ       0.284900
     13 CAD         -0.4880     2.8910    -0.0540 cd         1 IZZ      -0.159000
     14 NAE         -1.6960     3.3870    -0.2160 nc         1 IZZ      -0.263600
     15 CAF         -2.5200     2.2910    -0.3470 cc         1 IZZ      -0.051400
     16 CAB         -1.8400     1.0830    -0.2800 cd         1 IZZ      -0.081300
     17 CAH         -2.4240    -0.2860    -0.3750 ca         1 IZZ       0.031200
     18 CAL         -3.8280    -0.4290    -0.4830 ca         1 IZZ      -0.167000
     19 CAQ         -1.6430    -1.4670    -0.3730 ca         1 IZZ      -0.129000
     20 CAS         -2.2430    -2.7340    -0.4680 ca         1 IZZ      -0.079000
     21 CAU         -3.6360    -2.8470    -0.5690 ca         1 IZZ      -0.173000
     22 CAN         -4.4280    -1.6930    -0.5770 ca         1 IZZ       0.286000
     23 NAP         -5.7880    -1.8020    -0.6770 nv         1 IZZ      -1.071000
     24 HOAR         5.5810    -0.5370     2.7240 ho         1 IZZ       0.445000
     25 HAT          3.9440    -2.0760     2.1300 h1         1 IZZ       0.032700
     26 HATA         3.2650    -0.5950     2.7930 h1         1 IZZ       0.032700
     27 HAM          2.0130    -1.2470     0.8230 h1         1 IZZ       0.085700
     28 HAO          4.5650    -0.9530    -0.8370 hc         1 IZZ       0.057700
     29 HAW          2.9470    -3.4760    -0.1820 hc         1 IZZ       0.036867
     30 HAWA         4.2250    -3.3860    -1.4120 hc         1 IZZ       0.036867
     31 HAWB         4.6300    -3.1360     0.2860 hc         1 IZZ       0.036867
     32 HAV          2.6150    -0.1310    -2.1280 hc         1 IZZ       0.036867
     33 HAVA         3.1600    -1.6790    -2.7810 hc         1 IZZ       0.036867
     34 HAVB         1.7110    -1.6150    -1.7550 hc         1 IZZ       0.036867
     35 HNAJ         3.6370     1.2560     0.6840 hn         1 IZZ       0.496000
     36 HAK          2.8080     3.2510     0.4470 ha         1 IZZ       0.131000
     37 HAI          0.7690     4.7000     0.1570 ha         1 IZZ       0.145000
     38 HAF         -3.5830     2.4530    -0.4900 h4         1 IZZ       0.227000
     39 HAL         -4.4690     0.4450    -0.4910 ha         1 IZZ       0.114000
     40 HAQ         -0.5630    -1.4330    -0.3080 ha         1 IZZ       0.125000
     41 HAS         -1.6240    -3.6290    -0.4660 ha         1 IZZ       0.106000
     42 HAU         -4.0950    -3.8290    -0.6440 ha         1 IZZ       0.111000
     43 HNAP        -6.3760    -0.9810    -0.5470 hn         1 IZZ       0.445500
     44 HNAA        -6.2320    -2.7170    -0.6110 hn         1 IZZ       0.445500
@<TRIPOS>BOND
     1     1     2 1   
     2     1    24 1   
     3     2     3 1   
     4     2    25 1   
     5     2    26 1   
     6     3     4 1   
     7     3     7 1   
     8     3    27 1   
     9     4     5 1   
    10     4     6 1   
    11     4    28 1   
    12     5    29 1   
    13     5    30 1   
    14     5    31 1   
    15     6    32 1   
    16     6    33 1   
    17     6    34 1   
    18     7     8 1   
    19     7    35 1   
    20     8     9 1   
    21     8    11 2   
    22     9    10 2   
    23     9    36 1   
    24    10    13 1   
    25    10    37 1   
    26    11    12 1   
    27    12    13 1   
    28    12    16 1   
    29    13    14 2   
    30    14    15 1   
    31    15    16 2   
    32    15    38 1   
    33    16    17 1   
    34    17    18 ar  
    35    17    19 ar  
    36    18    22 ar  
    37    18    39 1   
    38    19    20 ar  
    39    19    40 1   
    40    20    21 ar  
    41    20    41 1   
    42    21    22 ar  
    43    21    42 1   
    44    22    23 1   
    45    23    43 1   
    46    23    44 1   
@<TRIPOS>SUBSTRUCTURE
     1 IZZ         1 TEMP              0 ****  ****    0 ROOT
