@<TRIPOS>MOLECULE
IZZ
   44    46     1     0     0
SMALL
abcg2


@<TRIPOS>ATOM
      1 OAR          3.8630    -0.9370     2.0570 oh         1 IZZ      -0.668000
      2 CAT          2.6810    -1.3140     1.3900 c3         1 IZZ       0.133600
      3 CAM          2.7520    -0.8350    -0.0550 c3         1 IZZ       0.239500
      4 CAO          3.9570    -1.3720    -0.8430 c3         1 IZZ      -0.063700
      5 CAW          4.1020    -2.8830    -0.6940 c3         1 IZZ      -0.087600
      6 CAV          3.8390    -0.9990    -2.3190 c3         1 IZZ      -0.087600
      7 NAJ          2.7480     0.6130    -0.1280 nu         1 IZZ      -0.920100
      8 CAG          1.6380     1.3730    -0.0060 cc         1 IZZ       0.589900
      9 CAK          1.7890     2.8040     0.0380 cc         1 IZZ      -0.204000
     10 CAI          0.6840     3.5800     0.1090 cd         1 IZZ       0.009000
     11 NAC          0.4750     0.7750     0.0400 nd         1 IZZ      -0.590800
     12 NAA         -0.5950     1.5780     0.1110 na         1 IZZ       0.284900
     13 CAD         -0.5770     2.9470     0.1410 cd         1 IZZ      -0.159000
     14 NAE         -1.8030     3.4410     0.1950 nc         1 IZZ      -0.263600
     15 CAF         -2.6120     2.3660     0.1940 cc         1 IZZ      -0.051400
     16 CAB         -1.9020     1.1770     0.1420 cd         1 IZZ      -0.081300
     17 CAH         -2.3890    -0.1980     0.1320 ca         1 IZZ       0.031200
     18 CAL         -3.6510    -0.4360    -0.4130 ca         1 IZZ      -0.167000
     19 CAQ         -1.6710    -1.2620     0.6860 ca         1 IZZ      -0.129000
     20 CAS         -2.2340    -2.5300     0.6850 ca         1 IZZ      -0.079000
     21 CAU         -3.4880    -2.7660     0.1480 ca         1 IZZ      -0.173000
     22 CAN         -4.2210    -1.7110    -0.4090 ca         1 IZZ       0.286000
     23 NAP         -5.4480    -1.9350    -0.9980 nv         1 IZZ      -1.071000
     24 HOAR         3.7800    -1.1860     2.9820 ho         1 IZZ       0.445000
     25 HAT          2.5300    -2.4000     1.4030 h1         1 IZZ       0.032700
     26 HATA         1.7940    -0.8710     1.8610 h1         1 IZZ       0.032700
     27 HAM          1.8420    -1.1950    -0.5460 h1         1 IZZ       0.085700
     28 HAO          4.8650    -0.9050    -0.4450 hc         1 IZZ       0.057700
     29 HAW          3.1850    -3.4000    -0.9890 hc         1 IZZ       0.036867
     30 HAWA         4.9050    -3.2500    -1.3340 hc         1 IZZ       0.036867
     31 HAWB         4.3390    -3.1790     0.3280 hc         1 IZZ       0.036867
     32 HAV          3.7720     0.0790    -2.4640 hc         1 IZZ       0.036867
     33 HAVA         4.7060    -1.3560    -2.8770 hc         1 IZZ       0.036867
     34 HAVB         2.9490    -1.4520    -2.7640 hc         1 IZZ       0.036867
     35 HNAJ         3.6280     1.0770     0.0330 hn         1 IZZ       0.496000
     36 HAK          2.7800     3.2360     0.0060 ha         1 IZZ       0.131000
     37 HAI          0.7420     4.6590     0.1380 ha         1 IZZ       0.145000
     38 HAF         -3.6860     2.4670     0.2500 h4         1 IZZ       0.227000
     39 HAL         -4.2020     0.3830    -0.8630 ha         1 IZZ       0.114000
     40 HAQ         -0.6970    -1.1030     1.1220 ha         1 IZZ       0.125000
     41 HAS         -1.6830    -3.3560     1.1170 ha         1 IZZ       0.106000
     42 HAU         -3.9040    -3.7670     0.1550 ha         1 IZZ       0.111000
     43 HNAP        -6.0490    -1.1290    -1.0690 hn         1 IZZ       0.445500
     44 HNAA        -5.9500    -2.7400    -0.6610 hn         1 IZZ       0.445500
@<TRIPOS>BOND
     1     1     2 1   
     2     1    24 1   
     3     2     3 1   
     4     2    25 1   
     5     2    26 1   
     6     3     4 1   
     7     3     7 1   
     8     3    27 1   
     9     4     5 1   
    10     4     6 1   
    11     4    28 1   
    12     5    29 1   
    13     5    30 1   
    14     5    31 1   
    15     6    32 1   
    16     6    33 1   
    17     6    34 1   
    18     7     8 1   
    19     7    35 1   
    20     8     9 1   
    21     8    11 2   
    22     9    10 2   
    23     9    36 1   
    24    10    13 1   
    25    10    37 1   
    26    11    12 1   
    27    12    13 1   
    28    12    16 1   
    29    13    14 2   
    30    14    15 1   
    31    15    16 2   
    32    15    38 1   
    33    16    17 1   
    34    17    18 ar  
    35    17    19 ar  
    36    18    22 ar  
    37    18    39 1   
    38    19    20 ar  
    39    19    40 1   
    40    20    21 ar  
    41    20    41 1   
    42    21    22 ar  
    43    21    42 1   
    44    22    23 1   
    45    23    43 1   
    46    23    44 1   
@<TRIPOS>SUBSTRUCTURE
     1 IZZ         1 TEMP              0 ****  ****    0 ROOT
