@<TRIPOS>MOLECULE
900
   56    60     1     0     0
SMALL
bcc


@<TRIPOS>ATOM
      1 C1          -1.3760     1.1640    -0.1790 ca         1 900       0.103100
      2 C2          -0.9230     2.3780     0.2410 ca         1 900      -0.121000
      3 C3           0.4650     2.6500     0.2390 ca         1 900      -0.036000
      4 C4           1.3810     1.6570    -0.2010 ca         1 900      -0.002000
      5 C5           0.8590     0.4080    -0.6230 ca         1 900      -0.097000
      6 C6          -0.4850     0.1650    -0.6130 ca         1 900      -0.137000
      7 C10          0.9470     3.9010     0.6890 ca         1 900      -0.091000
      8 C11          2.2880     4.1580     0.7230 ca         1 900      -0.133000
      9 C12          3.2040     3.1760     0.3020 ca         1 900      -0.097000
     10 C13          2.7730     1.9560    -0.1590 ca         1 900      -0.139600
     11 O17         -2.7280     0.9260    -0.2230 os         1 900      -0.248200
     12 C18         -3.2740     0.0530     0.6500 ca         1 900       0.184100
     13 C19         -4.6090    -0.3320     0.3910 ca         1 900      -0.157300
     14 C20         -5.2070    -1.2290     1.3030 ca         1 900       0.435600
     15 N21         -4.5620    -1.7210     2.3850 nb         1 900      -0.682000
     16 C22         -3.3270    -1.3350     2.5820 ca         1 900       0.442200
     17 C23         -2.6250    -0.4480     1.7520 ca         1 900      -0.343300
     18 C26         -5.3480     0.1390    -0.7230 ca         1 900      -0.175000
     19 C27         -6.6370    -0.2690    -0.9210 ca         1 900       0.118100
     20 C28         -7.2490    -1.1810     0.0010 ca         1 900       0.148100
     21 C29         -6.5430    -1.6410     1.0780 ca         1 900      -0.267300
     22 O32         -7.4270     0.1120    -1.9340 os         1 900      -0.295900
     23 C33         -6.9040     1.0270    -2.8780 c3         1 900       0.120700
     24 O37         -8.5100    -1.5120    -0.2970 os         1 900      -0.293900
     25 C38         -9.1860    -2.4090     0.5660 c3         1 900       0.119700
     26 C42          3.7850     0.9880    -0.6840 c          1 900       0.686700
     27 N43          4.8270     0.7810     0.1590 ns         1 900      -0.469100
     28 C44          5.9640    -0.0110    -0.0250 ca         1 900       0.073600
     29 C45          6.3240    -0.6080    -1.2330 ca         1 900      -0.160500
     30 C46          7.4820    -1.3670    -1.3130 ca         1 900      -0.093000
     31 C47          8.2850    -1.5350    -0.1990 ca         1 900       0.000400
     32 C48          7.9420    -0.9460     1.0090 ca         1 900      -0.093000
     33 C49          6.7880    -0.1900     1.0890 ca         1 900      -0.160500
     34 CL54         9.7300    -2.4860    -0.3120 cl         1 900      -0.109400
     35 O55          3.6710     0.4600    -1.7760 o          1 900      -0.568100
     36 H2          -1.6170     3.1390     0.5770 ha         1 900       0.151000
     37 H5           1.5200    -0.3750    -0.9610 ha         1 900       0.157000
     38 H6          -0.8660    -0.7930    -0.9450 ha         1 900       0.153000
     39 H10          0.2360     4.6520     1.0110 ha         1 900       0.139000
     40 H11          2.6550     5.1140     1.0690 ha         1 900       0.140000
     41 H12          4.2610     3.4080     0.3210 ha         1 900       0.138000
     42 H22         -2.8230    -1.7360     3.4550 h4         1 900       0.017100
     43 H23         -1.6080    -0.1790     1.9990 ha         1 900       0.151000
     44 H26         -4.8770     0.8220    -1.4160 ha         1 900       0.154000
     45 H29         -6.9800    -2.3290     1.7890 ha         1 900       0.158000
     46 H331        -7.6970     1.2140    -3.5970 h1         1 900       0.042700
     47 H332        -6.6170     1.9720    -2.4100 h1         1 900       0.042700
     48 H333        -6.0390     0.6160    -3.4050 h1         1 900       0.042700
     49 H381        -9.2770    -2.0050     1.5770 h1         1 900       0.044367
     50 H382       -10.1800    -2.5460     0.1480 h1         1 900       0.044367
     51 H383        -8.6840    -3.3770     0.6150 h1         1 900       0.044367
     52 H43          4.7510     1.2060     1.0710 hn         1 900       0.322500
     53 H45          5.7200    -0.4910    -2.1170 ha         1 900       0.151000
     54 H46          7.7500    -1.8250    -2.2560 ha         1 900       0.149000
     55 H48          8.5650    -1.0730     1.8840 ha         1 900       0.149000
     56 H49          6.5240     0.2670     2.0350 ha         1 900       0.151000
@<TRIPOS>BOND
     1     1     2 ar  
     2     1     6 ar  
     3     1    11 1   
     4     2     3 ar  
     5     2    36 1   
     6     3     4 ar  
     7     3     7 ar  
     8     4     5 ar  
     9     4    10 ar  
    10     5     6 ar  
    11     5    37 1   
    12     6    38 1   
    13     7     8 ar  
    14     7    39 1   
    15     8     9 ar  
    16     8    40 1   
    17     9    10 ar  
    18     9    41 1   
    19    10    26 1   
    20    11    12 1   
    21    12    13 ar  
    22    12    17 ar  
    23    13    14 ar  
    24    13    18 ar  
    25    14    15 ar  
    26    14    21 ar  
    27    15    16 ar  
    28    16    17 ar  
    29    16    42 1   
    30    17    43 1   
    31    18    19 ar  
    32    18    44 1   
    33    19    20 ar  
    34    19    22 1   
    35    20    21 ar  
    36    20    24 1   
    37    21    45 1   
    38    22    23 1   
    39    23    46 1   
    40    23    47 1   
    41    23    48 1   
    42    24    25 1   
    43    25    49 1   
    44    25    50 1   
    45    25    51 1   
    46    26    27 1   
    47    26    35 2   
    48    27    28 1   
    49    27    52 1   
    50    28    29 ar  
    51    28    33 ar  
    52    29    30 ar  
    53    29    53 1   
    54    30    31 ar  
    55    30    54 1   
    56    31    32 ar  
    57    31    34 1   
    58    32    33 ar  
    59    32    55 1   
    60    33    56 1   
@<TRIPOS>SUBSTRUCTURE
     1 900         1 TEMP              0 ****  ****    0 ROOT
