@<TRIPOS>MOLECULE
900
   56    60     1     0     0
SMALL
No Charge or Current Charge


@<TRIPOS>ATOM
      1 C1          -1.5410     1.4400     0.4260 ca         1 900       0.103100
      2 C2          -0.9170     2.6860     0.5640 ca         1 900      -0.103000
      3 C3           0.4730     2.8120     0.3790 ca         1 900      -0.036000
      4 C4           1.2630     1.6860     0.0260 ca         1 900      -0.002000
      5 C5           0.6130     0.4310    -0.0990 ca         1 900      -0.079000
      6 C6          -0.7740     0.3120     0.0910 ca         1 900      -0.119000
      7 C10          1.0660     4.0730     0.5610 ca         1 900      -0.073000
      8 C11          2.4470     4.2270     0.4020 ca         1 900      -0.115000
      9 C12          3.2410     3.1280     0.0470 ca         1 900      -0.079000
     10 C13          2.6710     1.8460    -0.1590 ca         1 900      -0.139600
     11 O17         -2.9030     1.3520     0.6040 os         1 900      -0.248200
     12 C18         -3.5120     0.2630     1.1890 ca         1 900       0.184100
     13 C19         -4.7210    -0.2480     0.6740 ca         1 900      -0.092000
     14 C20         -5.3140    -1.3590     1.3230 ca         1 900       0.305000
     15 N21         -4.7610    -1.9320     2.4150 nb         1 900      -0.682000
     16 C22         -3.6090    -1.4280     2.9050 ca         1 900       0.376900
     17 C23         -2.9560    -0.3350     2.3280 ca         1 900      -0.260000
     18 C26         -5.3310     0.3240    -0.4640 ca         1 900      -0.157000
     19 C27         -6.5390    -0.2080    -0.9650 ca         1 900       0.118100
     20 C28         -7.1330    -1.3170    -0.3200 ca         1 900       0.148100
     21 C29         -6.5150    -1.8800     0.8180 ca         1 900      -0.184000
     22 O32         -7.1660     0.3260    -2.0800 os         1 900      -0.319100
     23 C33         -6.6370     1.4520    -2.8030 c3         1 900       0.143900
     24 O37         -8.3190    -1.8210    -0.8300 os         1 900      -0.317100
     25 C38         -8.9990    -2.9450    -0.2440 c3         1 900       0.142900
     26 C42          3.5890     0.7150    -0.5930 c          1 900       0.619700
     27 N43          4.8660     0.7670    -0.0450 ns         1 900      -0.143000
     28 C44          6.0090    -0.0670    -0.1920 ca         1 900      -0.019000
     29 C45          5.9850    -1.3150    -0.8540 ca         1 900      -0.142500
     30 C46          7.1560    -2.0890    -0.9540 ca         1 900      -0.075000
     31 C47          8.3570    -1.6270    -0.3930 ca         1 900       0.092000
     32 C48          8.3890    -0.3920     0.2720 ca         1 900      -0.075000
     33 C49          7.2190     0.3820     0.3730 ca         1 900      -0.142500
     34 Cl54         9.8190    -2.5970    -0.5200 cl         1 900      -0.201000
     35 O55          3.2510    -0.1210    -1.4230 o          1 900      -0.568100
     36 H2          -1.5180     3.5540     0.8260 ha         1 900       0.133000
     37 H5           1.1610    -0.4760    -0.3280 ha         1 900       0.139000
     38 H6          -1.2490    -0.6590    -0.0250 ha         1 900       0.135000
     39 H10          0.4590     4.9330     0.8320 ha         1 900       0.121000
     40 H11          2.9040     5.2050     0.5430 ha         1 900       0.122000
     41 H12          4.3070     3.2950    -0.0990 ha         1 900       0.120000
     42 H22         -3.2010    -1.9150     3.7900 h4         1 900       0.017100
     43 H23         -2.0370     0.0390     2.7670 ha         1 900       0.133000
     44 H26         -4.8590     1.1740    -0.9480 ha         1 900       0.136000
     45 H29         -6.9530    -2.7310     1.3280 ha         1 900       0.140000
     46 H331        -7.2920     1.7040    -3.6460 h1         1 900       0.042700
     47 H332        -6.5640     2.3330    -2.1540 h1         1 900       0.042700
     48 H333        -5.6410     1.2250    -3.2040 h1         1 900       0.042700
     49 H381        -9.2860    -2.7310     0.7930 h1         1 900       0.044367
     50 H382        -9.9130    -3.1720    -0.8080 h1         1 900       0.044367
     51 H383        -8.3620    -3.8380    -0.2580 h1         1 900       0.044367
     52 H43          5.0050     1.5370     0.5960 hn         1 900       0.156000
     53 H45          5.0720    -1.7100    -1.2890 ha         1 900       0.133000
     54 H46          7.1320    -3.0490    -1.4650 ha         1 900       0.131000
     55 H48          9.3190    -0.0360     0.7090 ha         1 900       0.131000
     56 H49          7.2580     1.3370     0.8930 ha         1 900       0.133000
@<TRIPOS>BOND
     1     1     2 ar  
     2     1     6 ar  
     3     1    11 1   
     4     2     3 ar  
     5     2    36 1   
     6     3     4 ar  
     7     3     7 ar  
     8     4     5 ar  
     9     4    10 ar  
    10     5     6 ar  
    11     5    37 1   
    12     6    38 1   
    13     7     8 ar  
    14     7    39 1   
    15     8     9 ar  
    16     8    40 1   
    17     9    10 ar  
    18     9    41 1   
    19    10    26 1   
    20    11    12 1   
    21    12    13 ar  
    22    12    17 ar  
    23    13    14 ar  
    24    13    18 ar  
    25    14    15 ar  
    26    14    21 ar  
    27    15    16 ar  
    28    16    17 ar  
    29    16    42 1   
    30    17    43 1   
    31    18    19 ar  
    32    18    44 1   
    33    19    20 ar  
    34    19    22 1   
    35    20    21 ar  
    36    20    24 1   
    37    21    45 1   
    38    22    23 1   
    39    23    46 1   
    40    23    47 1   
    41    23    48 1   
    42    24    25 1   
    43    25    49 1   
    44    25    50 1   
    45    25    51 1   
    46    26    27 1   
    47    26    35 2   
    48    27    28 1   
    49    27    52 1   
    50    28    29 ar  
    51    28    33 ar  
    52    29    30 ar  
    53    29    53 1   
    54    30    31 ar  
    55    30    54 1   
    56    31    32 ar  
    57    31    34 1   
    58    32    33 ar  
    59    32    55 1   
    60    33    56 1   
@<TRIPOS>SUBSTRUCTURE
     1 900         1 TEMP              0 ****  ****    0 ROOT
