@<TRIPOS>MOLECULE
901
   84    85     1     0     0
SMALL
No Charge or Current Charge


@<TRIPOS>ATOM
      1 O6          -0.2690    -3.9430     6.7060 o          1 901      -0.705000
      2 C24          0.4710    -3.0040     6.4120 c          1 901       0.675000
      3 O7           1.3590    -3.1050     5.5670 o          1 901      -0.705000
      4 C8           0.3520    -1.6310     7.2750 c          1 901       0.496100
      5 O5           0.1050    -1.6640     8.4890 o          1 901      -0.605100
      6 N4           0.5250    -0.3900     6.5980 n          1 901      -0.068000
      7 C26          0.7830     0.8570     7.2970 ca         1 901      -0.003000
      8 C27          0.0860     2.0150     6.8740 ca         1 901      -0.158000
      9 C28          0.2510     3.2440     7.5280 ca         1 901      -0.151000
     10 C29          1.1260     3.3430     8.6140 ca         1 901      -0.166000
     11 C30          1.8510     2.2180     9.0330 ca         1 901      -0.099000
     12 C25          1.7030     0.9700     8.3830 ca         1 901      -0.103600
     13 C31          2.6150    -0.1640     8.8110 c          1 901       0.727600
     14 O9           3.2060    -0.7910     7.9410 o          1 901      -0.716500
     15 O10          2.8290    -0.3180    10.0060 o          1 901      -0.716500
     16 C2           0.4130    -0.2710     5.1640 ca         1 901       0.035000
     17 C3           1.4990     0.3090     4.4740 ca         1 901      -0.070000
     18 C4           1.4630     0.4830     3.0830 ca         1 901      -0.129000
     19 C5           0.3270     0.0980     2.3560 ca         1 901      -0.125300
     20 C6          -0.7710    -0.4570     3.0360 ca         1 901      -0.115000
     21 C1          -0.7510    -0.6500     4.4350 ca         1 901      -0.077300
     22 C32         -2.0470    -1.1270     5.1070 c3         1 901      -0.018100
     23 C33         -2.5920    -2.4550     4.5380 c3         1 901      -0.085100
     24 C7           0.2680     0.3290     0.8480 c3         1 901      -0.038100
     25 C9           0.1600     1.8370     0.4740 c3         1 901       0.045700
     26 N1          -0.8490     2.5600     1.2890 ns         1 901      -0.476900
     27 C10         -2.1920     2.2570     1.3560 c          1 901       0.611100
     28 O4          -2.7190     1.3880     0.6770 o          1 901      -0.623100
     29 C23         -2.9790     3.0990     2.3530 c3         1 901      -0.176100
     30 C11         -0.0220     2.1060    -1.0570 c          1 901       0.604100
     31 O8          -0.7890     2.9510    -1.5070 o          1 901      -0.626100
     32 N2           0.7630     1.3360    -1.8940 ns         1 901      -0.501900
     33 C12          0.7310     1.3900    -3.3570 c3         1 901       0.105000
     34 C13         -0.4620     0.6060    -3.9410 c3         1 901      -0.099400
     35 C15         -0.5010     0.6340    -5.4840 c3         1 901      -0.060400
     36 C14         -1.6960    -0.1530    -6.0730 c3         1 901      -0.164400
     37 C16         -1.6940    -0.1050    -7.6040 c          1 901       0.607100
     38 O1          -2.0280     0.8920    -8.2300 o          1 901      -0.624100
     39 N3          -1.3160    -1.2780    -8.2210 ns         1 901      -0.466900
     40 C17         -1.2060    -1.4870    -9.6870 c3         1 901      -0.042300
     41 C22         -1.6640    -2.9280   -10.0680 c          1 901       0.715000
     42 O2          -2.5540    -3.0500   -10.8980 o          1 901      -0.722000
     43 O3          -1.1750    -3.8750    -9.4650 o          1 901      -0.722000
     44 C18          0.2230    -1.1940   -10.2140 c3         1 901      -0.065400
     45 C34          0.6910     0.2600   -10.0030 c3         1 901       0.084600
     46 S1           2.3630     0.5180   -10.7510 ss         1 901      -0.482000
     47 C35          2.6340     2.2930   -10.3070 c3         1 901       0.043900
     48 H27         -0.6190     1.9600     6.0480 ha         1 901       0.093000
     49 H28         -0.3060     4.1170     7.1960 ha         1 901       0.068000
     50 H29          1.2570     4.2950     9.1230 ha         1 901       0.067000
     51 H30          2.5550     2.3200     9.8560 ha         1 901       0.108000
     52 H3           2.3850     0.6160     5.0250 ha         1 901       0.175000
     53 H4           2.3160     0.9260     2.5750 ha         1 901       0.089000
     54 H6          -1.6650    -0.7080     2.4720 ha         1 901       0.095000
     55 H321        -2.8180    -0.3590     4.9730 hc         1 901       0.042200
     56 H322        -1.9420    -1.2320     6.1910 hc         1 901       0.042200
     57 H331        -3.4420    -2.8040     5.1370 hc         1 901       0.031033
     58 H332        -2.9390    -2.3310     3.5060 hc         1 901       0.031033
     59 H333        -1.8210    -3.2320     4.5490 hc         1 901       0.031033
     60 H71         -0.5790    -0.2140     0.4110 hc         1 901       0.051200
     61 H72          1.1660    -0.0990     0.3870 hc         1 901       0.051200
     62 H9           1.1310     2.2840     0.7220 h1         1 901       0.066700
     63 HN1         -0.5300     3.3060     1.8950 hn         1 901       0.325500
     64 H231        -4.0440     2.8430     2.3750 hc         1 901       0.055367
     65 H232        -2.5200     2.9980     3.3430 hc         1 901       0.055367
     66 H233        -2.8210     4.1600     2.1300 hc         1 901       0.055367
     67 HN2          1.3880     0.6710    -1.4540 hn         1 901       0.321500
     68 H121         1.6690     0.9670    -3.7410 h1         1 901       0.046200
     69 H122         0.6790     2.4400    -3.6780 h1         1 901       0.046200
     70 H131        -1.3970     1.0250    -3.5490 hc         1 901       0.041200
     71 H132        -0.4080    -0.4340    -3.5980 hc         1 901       0.041200
     72 H151         0.4350     0.2150    -5.8770 hc         1 901       0.050700
     73 H152        -0.5510     1.6760    -5.8250 hc         1 901       0.050700
     74 H141        -2.6250     0.3010    -5.7070 hc         1 901       0.052700
     75 H142        -1.6290    -1.1920    -5.7300 hc         1 901       0.052700
     76 HN3         -1.0870    -2.0570    -7.6140 hn         1 901       0.288500
     77 H17         -1.9010    -0.7980   -10.1850 h1         1 901       0.061700
     78 H181         0.2510    -1.4170   -11.2870 hc         1 901       0.059200
     79 H182         0.9350    -1.8740    -9.7310 hc         1 901       0.059200
     80 H341         0.7450     0.4850    -8.9300 h1         1 901       0.053700
     81 H342        -0.0230     0.9520   -10.4690 h1         1 901       0.053700
     82 H351         3.6100     2.6250   -10.6840 h1         1 901       0.048367
     83 H352         1.8460     2.9140   -10.7530 h1         1 901       0.048367
     84 H353         2.6120     2.4110    -9.2160 h1         1 901       0.048367
@<TRIPOS>BOND
     1     1     2 1   
     2     2     3 1   
     3     2     4 1   
     4     4     5 2   
     5     4     6 1   
     6     6     7 1   
     7     6    16 1   
     8     7     8 ar  
     9     7    12 ar  
    10     8     9 ar  
    11     8    48 1   
    12     9    10 ar  
    13     9    49 1   
    14    10    11 ar  
    15    10    50 1   
    16    11    12 ar  
    17    11    51 1   
    18    12    13 1   
    19    13    14 1   
    20    13    15 1   
    21    16    17 ar  
    22    16    21 ar  
    23    17    18 ar  
    24    17    52 1   
    25    18    19 ar  
    26    18    53 1   
    27    19    20 ar  
    28    19    24 1   
    29    20    21 ar  
    30    20    54 1   
    31    21    22 1   
    32    22    23 1   
    33    22    55 1   
    34    22    56 1   
    35    23    57 1   
    36    23    58 1   
    37    23    59 1   
    38    24    25 1   
    39    24    60 1   
    40    24    61 1   
    41    25    26 1   
    42    25    30 1   
    43    25    62 1   
    44    26    27 1   
    45    26    63 1   
    46    27    28 2   
    47    27    29 1   
    48    29    64 1   
    49    29    65 1   
    50    29    66 1   
    51    30    31 2   
    52    30    32 1   
    53    32    33 1   
    54    32    67 1   
    55    33    34 1   
    56    33    68 1   
    57    33    69 1   
    58    34    35 1   
    59    34    70 1   
    60    34    71 1   
    61    35    36 1   
    62    35    72 1   
    63    35    73 1   
    64    36    37 1   
    65    36    74 1   
    66    36    75 1   
    67    37    38 2   
    68    37    39 1   
    69    39    40 1   
    70    39    76 1   
    71    40    41 1   
    72    40    44 1   
    73    40    77 1   
    74    41    42 1   
    75    41    43 1   
    76    44    45 1   
    77    44    78 1   
    78    44    79 1   
    79    45    46 1   
    80    45    80 1   
    81    45    81 1   
    82    46    47 1   
    83    47    82 1   
    84    47    83 1   
    85    47    84 1   
@<TRIPOS>SUBSTRUCTURE
     1 901         1 TEMP              0 ****  ****    0 ROOT
