@<TRIPOS>MOLECULE
901
   84    85     1     0     0
SMALL
bcc


@<TRIPOS>ATOM
      1 O6           0.0570    -3.7070     6.3940 o          1 901      -0.810300
      2 C24          0.9560    -2.8950     6.1140 c          1 901       0.885600
      3 O7           1.8250    -2.9640     5.2340 o          1 901      -0.810300
      4 C8           1.0400    -1.6830     7.0530 c          1 901       0.563100
      5 O5           1.2940    -1.8350     8.2380 o          1 901      -0.605100
      6 N4           0.8090    -0.4560     6.5130 n          1 901      -0.320200
      7 C26          0.9540     0.7200     7.2990 ca         1 901       0.089600
      8 C27         -0.1380     1.5800     7.3930 ca         1 901      -0.176000
      9 C28         -0.0660     2.7400     8.1470 ca         1 901      -0.169000
     10 C29          1.0980     3.0300     8.8440 ca         1 901      -0.184000
     11 C30          2.1750     2.1610     8.7680 ca         1 901      -0.117000
     12 C25          2.1410     1.0130     7.9770 ca         1 901      -0.103600
     13 C31          3.4130     0.1830     7.8670 c          1 901       0.938200
     14 O9           3.7400    -0.1920     6.7270 o          1 901      -0.821800
     15 O10          4.0420     0.0040     8.9270 o          1 901      -0.821800
     16 C2           0.4660    -0.2880     5.1400 ca         1 901       0.127600
     17 C3           1.4660     0.1450     4.2740 ca         1 901      -0.088000
     18 C4           1.1900     0.3780     2.9420 ca         1 901      -0.147000
     19 C5          -0.1010     0.1820     2.4500 ca         1 901      -0.125300
     20 C6          -1.0830    -0.2500     3.3260 ca         1 901      -0.133000
     21 C1          -0.8330    -0.4970     4.6790 ca         1 901      -0.077300
     22 C32         -1.9720    -0.9300     5.5660 c3         1 901      -0.018100
     23 C33         -2.7200    -2.1570     5.0530 c3         1 901      -0.085100
     24 C7          -0.4310     0.4890     1.0180 c3         1 901      -0.038100
     25 C9          -0.5170     2.0090     0.7810 c3         1 901       0.045700
     26 N1          -1.3010     2.6840     1.7830 ns         1 901      -0.543900
     27 C10         -2.6300     2.5160     1.8890 c          1 901       0.678100
     28 O4          -3.2670     1.8610     1.0750 o          1 901      -0.623100
     29 C23         -3.2690     3.1580     3.0930 c3         1 901      -0.176100
     30 C11         -0.9770     2.4440    -0.6170 c          1 901       0.671100
     31 O8          -1.3150     3.5990    -0.8270 o          1 901      -0.626100
     32 N2          -0.9050     1.5280    -1.5880 ns         1 901      -0.568900
     33 C12         -1.2340     1.8260    -2.9670 c3         1 901       0.105000
     34 C13         -0.8850     0.6510    -3.8650 c3         1 901      -0.099400
     35 C15         -1.1960     0.9470    -5.3260 c3         1 901      -0.060400
     36 C14         -0.8670    -0.2370    -6.2230 c3         1 901      -0.164400
     37 C16         -1.1510     0.0190    -7.6890 c          1 901       0.674100
     38 O1          -2.0000     0.8190    -8.0600 o          1 901      -0.624100
     39 N3          -0.3910    -0.6890    -8.5410 ns         1 901      -0.533900
     40 C17         -0.7020    -0.8040    -9.9460 c3         1 901      -0.042300
     41 C22         -1.9380    -1.7070   -10.2180 c          1 901       0.925600
     42 O2          -2.2950    -1.7600   -11.4120 o          1 901      -0.827300
     43 O3          -2.4550    -2.2860    -9.2490 o          1 901      -0.827300
     44 C18          0.5230    -1.3150   -10.7040 c3         1 901      -0.065400
     45 C34          1.6930    -0.3430   -10.6470 c3         1 901       0.036700
     46 S1           3.0980    -1.0270   -11.5730 ss         1 901      -0.386200
     47 C35          4.2910     0.3140   -11.3770 c3         1 901      -0.004000
     48 H27         -1.0560     1.3360     6.8740 ha         1 901       0.111000
     49 H28         -0.9210     3.4010     8.2000 ha         1 901       0.086000
     50 H29          1.1650     3.9260     9.4490 ha         1 901       0.085000
     51 H30          3.0780     2.3860     9.3210 ha         1 901       0.126000
     52 H3           2.4610     0.2820     4.6760 ha         1 901       0.193000
     53 H4           1.9820     0.7050     2.2780 ha         1 901       0.107000
     54 H6          -2.0900    -0.3920     2.9470 ha         1 901       0.113000
     55 H321        -2.6770    -0.0970     5.6570 hc         1 901       0.042200
     56 H322        -1.6140    -1.1310     6.5740 hc         1 901       0.042200
     57 H331        -3.5340    -2.4140     5.7320 hc         1 901       0.031033
     58 H332        -3.1580    -1.9880     4.0700 hc         1 901       0.031033
     59 H333        -2.0520    -3.0150     4.9880 hc         1 901       0.031033
     60 H71         -1.3690     0.0050     0.7430 hc         1 901       0.051200
     61 H72          0.3530     0.0820     0.3750 hc         1 901       0.051200
     62 H9           0.4960     2.4080     0.8790 h1         1 901       0.066700
     63 HN1         -0.8110     3.1920     2.4980 hn         1 901       0.325500
     64 H231        -4.2670     3.5120     2.8440 hc         1 901       0.055367
     65 H232        -3.3700     2.4110     3.8830 hc         1 901       0.055367
     66 H233        -2.6880     3.9880     3.4900 hc         1 901       0.055367
     67 HN2         -0.6790     0.5740    -1.3620 hn         1 901       0.321500
     68 H121        -0.6830     2.7140    -3.2880 h1         1 901       0.046200
     69 H122        -2.2980     2.0620    -3.0610 h1         1 901       0.046200
     70 H131        -1.4420    -0.2340    -3.5420 hc         1 901       0.041200
     71 H132         0.1770     0.4110    -3.7550 hc         1 901       0.041200
     72 H151        -0.6280     1.8240    -5.6490 hc         1 901       0.050700
     73 H152        -2.2520     1.2060    -5.4310 hc         1 901       0.050700
     74 H141        -1.4640    -1.1050    -5.9210 hc         1 901       0.052700
     75 H142         0.1770    -0.5330    -6.0900 hc         1 901       0.052700
     76 HN3          0.1830    -1.4160    -8.1430 hn         1 901       0.288500
     77 H17         -0.9380     0.1960   -10.3230 h1         1 901       0.061700
     78 H181         0.2330    -1.4770   -11.7430 hc         1 901       0.059200
     79 H182         0.8260    -2.2890   -10.3040 hc         1 901       0.059200
     80 H341         2.0030    -0.1590    -9.6170 h1         1 901       0.053700
     81 H342         1.4060     0.6150   -11.0880 h1         1 901       0.053700
     82 H351         5.2010     0.0250   -11.9010 h1         1 901       0.048367
     83 H352         3.9190     1.2400   -11.8140 h1         1 901       0.048367
     84 H353         4.5320     0.4800   -10.3290 h1         1 901       0.048367
@<TRIPOS>BOND
     1     1     2 1   
     2     2     3 1   
     3     2     4 1   
     4     4     5 2   
     5     4     6 1   
     6     6     7 1   
     7     6    16 1   
     8     7     8 ar  
     9     7    12 ar  
    10     8     9 ar  
    11     8    48 1   
    12     9    10 ar  
    13     9    49 1   
    14    10    11 ar  
    15    10    50 1   
    16    11    12 ar  
    17    11    51 1   
    18    12    13 1   
    19    13    14 1   
    20    13    15 1   
    21    16    17 ar  
    22    16    21 ar  
    23    17    18 ar  
    24    17    52 1   
    25    18    19 ar  
    26    18    53 1   
    27    19    20 ar  
    28    19    24 1   
    29    20    21 ar  
    30    20    54 1   
    31    21    22 1   
    32    22    23 1   
    33    22    55 1   
    34    22    56 1   
    35    23    57 1   
    36    23    58 1   
    37    23    59 1   
    38    24    25 1   
    39    24    60 1   
    40    24    61 1   
    41    25    26 1   
    42    25    30 1   
    43    25    62 1   
    44    26    27 1   
    45    26    63 1   
    46    27    28 2   
    47    27    29 1   
    48    29    64 1   
    49    29    65 1   
    50    29    66 1   
    51    30    31 2   
    52    30    32 1   
    53    32    33 1   
    54    32    67 1   
    55    33    34 1   
    56    33    68 1   
    57    33    69 1   
    58    34    35 1   
    59    34    70 1   
    60    34    71 1   
    61    35    36 1   
    62    35    72 1   
    63    35    73 1   
    64    36    37 1   
    65    36    74 1   
    66    36    75 1   
    67    37    38 2   
    68    37    39 1   
    69    39    40 1   
    70    39    76 1   
    71    40    41 1   
    72    40    44 1   
    73    40    77 1   
    74    41    42 1   
    75    41    43 1   
    76    44    45 1   
    77    44    78 1   
    78    44    79 1   
    79    45    46 1   
    80    45    80 1   
    81    45    81 1   
    82    46    47 1   
    83    47    82 1   
    84    47    83 1   
    85    47    84 1   
@<TRIPOS>SUBSTRUCTURE
     1 901         1 TEMP              0 ****  ****    0 ROOT
