@<TRIPOS>MOLECULE
902
   63    67     1     0     0
SMALL
abcg2


@<TRIPOS>ATOM
      1 S1           0.9430     6.0560    -0.7180 ss         1 902       0.235000
      2 C2           0.3040     6.2140    -2.3100 cc         1 902      -0.322500
      3 C3          -0.4070     5.1030    -2.6750 cd         1 902       0.202100
      4 C4          -0.4160     4.1190    -1.6400 cd         1 902      -0.068900
      5 C5           0.2670     4.4850    -0.5170 cc         1 902      -0.147000
      6 C6           0.5490     7.4170    -3.0670 cc         1 902       0.606500
      7 N7           1.1730     8.4670    -2.5630 nd         1 902      -0.559800
      8 N8           0.2020     7.6220    -4.3530 nc         1 902      -0.312000
      9 C9           0.4940     3.7640     0.7390 ca         1 902       0.040000
     10 C10          1.0160     2.4730     0.6970 ca         1 902      -0.164000
     11 C11          1.2650     1.7610     1.8770 ca         1 902       0.327000
     12 C12          0.9740     2.3910     3.0990 ca         1 902      -0.200000
     13 C13          0.4650     3.6750     3.1300 ca         1 902      -0.069000
     14 C14          0.2180     4.3790     1.9570 ca         1 902      -0.150000
     15 BR19        -1.3930     2.5410    -1.8300 br         1 902      -0.049100
     16 O20         -1.0590     4.9480    -3.8320 os         1 902      -0.291100
     17 C21         -0.2890     4.3370    -4.8720 c3         1 902       0.018600
     18 C22         -1.1390     4.1310    -6.1330 c          1 902       0.733000
     19 O25         -0.5080     3.6120    -7.0750 o          1 902      -0.711500
     20 O26         -2.3260     4.4810    -6.1060 o          1 902      -0.711500
     21 N28          1.8150     0.5110     1.8710 nu         1 902      -0.986200
     22 C29          1.9380    -0.3140     0.6890 c6         1 902       0.243500
     23 C30          2.8170    -1.5240     0.9860 c6         1 902      -0.097400
     24 C31          2.1320    -2.5500     1.8790 c6         1 902       0.195300
     25 N32          0.8490    -2.9320     1.2850 n3         1 902      -0.726500
     26 C33         -0.0650    -1.8050     1.0820 c6         1 902       0.195300
     27 C34          0.5860    -0.7940     0.1520 c6         1 902      -0.097400
     28 S44          0.1990    -4.3750     1.7510 s6         1 902       1.181100
     29 O45          1.2620    -5.3680     1.7060 o          1 902      -0.524500
     30 O46         -0.9990    -4.5950     0.9560 o          1 902      -0.524500
     31 C47         -0.3040    -4.1880     3.4740 c3         1 902      -0.282100
     32 C48         -0.8910    -5.4720     3.9690 ca         1 902      -0.074300
     33 C51         -0.0750    -6.4460     4.5370 ca         1 902      -0.086000
     34 C52         -0.6180    -7.6440     4.9780 ca         1 902      -0.110000
     35 C53         -1.9800    -7.8810     4.8470 ca         1 902      -0.104000
     36 C54         -2.7980    -6.9140     4.2770 ca         1 902      -0.110000
     37 C55         -2.2550    -5.7160     3.8360 ca         1 902      -0.086000
     38 N61          0.6120     8.8110    -4.6490 nd         1 902      -0.183800
     39 N62          1.1770     9.2810    -3.5820 na         1 902       0.097600
     40 H10          1.2540     2.0420    -0.2650 ha         1 902       0.129000
     41 H12          1.1580     1.8630     4.0270 ha         1 902       0.099000
     42 H13          0.2500     4.1340     4.0860 ha         1 902       0.104000
     43 H14         -0.2020     5.3760     1.9910 ha         1 902       0.122000
     44 H211         0.5740     4.9660    -5.1130 h1         1 902       0.017700
     45 H212         0.0970     3.3680    -4.5350 h1         1 902       0.017700
     46 HN28         1.8730     0.0520     2.7660 hn         1 902       0.469000
     47 H29          2.4370     0.2720    -0.0880 h1         1 902       0.074700
     48 H301         3.7500    -1.2110     1.4590 hc         1 902       0.069950
     49 H302         3.0770    -2.0020     0.0400 hc         1 902       0.069950
     50 H311         2.7720    -3.4250     1.9640 h1         1 902       0.051700
     51 H312         1.9900    -2.1550     2.8940 h1         1 902       0.051700
     52 H331        -0.3210    -1.3320     2.0390 h1         1 902       0.051700
     53 H332        -0.9900    -2.1600     0.6340 h1         1 902       0.051700
     54 H341         0.7310    -1.2480    -0.8310 hc         1 902       0.069950
     55 H342        -0.1010     0.0440     0.0180 hc         1 902       0.069950
     56 H471         0.5860    -3.8980     4.0350 h1         1 902       0.092700
     57 H472        -1.0220    -3.3670     3.5110 h1         1 902       0.092700
     58 H51          0.9870    -6.2630     4.6480 ha         1 902       0.120000
     59 H52          0.0220    -8.3940     5.4230 ha         1 902       0.113500
     60 H53         -2.4040    -8.8150     5.1940 ha         1 902       0.110000
     61 H54         -3.8610    -7.0930     4.1760 ha         1 902       0.113500
     62 H55         -2.8960    -4.9620     3.3970 ha         1 902       0.120000
     63 HN62         1.5910    10.2040    -3.5490 hn         1 902       0.392000
@<TRIPOS>BOND
     1     1     2 1   
     2     1     5 1   
     3     2     3 2   
     4     2     6 1   
     5     3     4 1   
     6     3    16 1   
     7     4     5 2   
     8     4    15 1   
     9     5     9 1   
    10     6     7 2   
    11     6     8 1   
    12     7    39 1   
    13     8    38 2   
    14     9    10 ar  
    15     9    14 ar  
    16    10    11 ar  
    17    10    40 1   
    18    11    12 ar  
    19    11    21 1   
    20    12    13 ar  
    21    12    41 1   
    22    13    14 ar  
    23    13    42 1   
    24    14    43 1   
    25    16    17 1   
    26    17    18 1   
    27    17    44 1   
    28    17    45 1   
    29    18    19 1   
    30    18    20 1   
    31    21    22 1   
    32    21    46 1   
    33    22    23 1   
    34    22    27 1   
    35    22    47 1   
    36    23    24 1   
    37    23    48 1   
    38    23    49 1   
    39    24    25 1   
    40    24    50 1   
    41    24    51 1   
    42    25    26 1   
    43    25    28 1   
    44    26    27 1   
    45    26    52 1   
    46    26    53 1   
    47    27    54 1   
    48    27    55 1   
    49    28    29 2   
    50    28    30 2   
    51    28    31 1   
    52    31    32 1   
    53    31    56 1   
    54    31    57 1   
    55    32    33 ar  
    56    32    37 ar  
    57    33    34 ar  
    58    33    58 1   
    59    34    35 ar  
    60    34    59 1   
    61    35    36 ar  
    62    35    60 1   
    63    36    37 ar  
    64    36    61 1   
    65    37    62 1   
    66    38    39 1   
    67    39    63 1   
@<TRIPOS>SUBSTRUCTURE
     1 902         1 TEMP              0 ****  ****    0 ROOT
