@<TRIPOS>MOLECULE
902
   63    67     1     0     0
SMALL
No Charge or Current Charge


@<TRIPOS>ATOM
      1 S1           0.7920     6.1920    -0.3710 ss         1 902       0.235000
      2 C2           0.4610     6.4300    -2.0770 cc         1 902      -0.322500
      3 C3          -0.0200     5.2750    -2.6640 cd         1 902       0.202100
      4 C4          -0.1190     4.1500    -1.7550 cd         1 902      -0.068900
      5 C5           0.3170     4.5100    -0.4960 cc         1 902      -0.147000
      6 C6           0.6830     7.7060    -2.7050 cc         1 902       0.606500
      7 N7           1.1430     8.7460    -2.0420 nd         1 902      -0.559800
      8 N8           0.4400     7.9430    -4.0270 nc         1 902      -0.312000
      9 C9           0.3160     3.5770     0.6260 ca         1 902       0.040000
     10 C10          1.1210     2.4240     0.6020 ca         1 902      -0.164000
     11 C11          1.1210     1.5310     1.6860 ca         1 902       0.327000
     12 C12          0.3310     1.8060     2.8110 ca         1 902      -0.200000
     13 C13         -0.4640     2.9630     2.8530 ca         1 902      -0.069000
     14 C14         -0.4690     3.8470     1.7620 ca         1 902      -0.150000
     15 Br19        -0.7730     2.3940    -2.1180 br         1 902      -0.049100
     16 O20         -0.3510     5.2860    -4.0040 os         1 902      -0.291100
     17 C21         -0.8440     4.1380    -4.7310 c3         1 902       0.018600
     18 C22         -1.1080     4.4300    -6.2390 c          1 902       0.733000
     19 O25         -1.5270     3.5070    -6.9270 o          1 902      -0.711500
     20 O26         -0.8940     5.5500    -6.6890 o          1 902      -0.711500
     21 N28          1.8960     0.3710     1.6780 nu         1 902      -0.986200
     22 C29          2.1790    -0.4420     0.4760 c6         1 902       0.243500
     23 C30          3.1130    -1.6200     0.8320 c6         1 902      -0.097400
     24 C31          2.3900    -2.7190     1.6440 c6         1 902       0.195300
     25 N32          1.1650    -3.1930     0.9500 n3         1 902      -0.726500
     26 C33          0.2200    -2.0780     0.6910 c6         1 902       0.195300
     27 C34          0.8760    -0.9750    -0.1670 c6         1 902      -0.097400
     28 S44          0.4470    -4.6080     1.6290 s6         1 902       1.181100
     29 O45          1.5280    -5.5880     1.7860 o          1 902      -0.524500
     30 O46         -0.6960    -4.9450     0.7720 o          1 902      -0.524500
     31 C47         -0.1490    -4.1030     3.2600 c3         1 902      -0.282100
     32 C48         -0.8280    -5.2180     4.0450 ca         1 902      -0.074300
     33 C51         -0.0730    -6.0450     4.8990 ca         1 902      -0.086000
     34 C52         -0.7000    -7.0730     5.6250 ca         1 902      -0.110000
     35 C53         -2.0840    -7.2790     5.5010 ca         1 902      -0.104000
     36 C54         -2.8420    -6.4540     4.6510 ca         1 902      -0.110000
     37 C55         -2.2150    -5.4260     3.9260 ca         1 902      -0.086000
     38 N61          0.7490     9.1880    -4.2540 nd         1 902      -0.183800
     39 N62          1.1760     9.6750    -3.0490 na         1 902       0.097600
     40 H10          1.7460     2.2320    -0.2630 ha         1 902       0.129000
     41 H12          0.3280     1.1220     3.6560 ha         1 902       0.099000
     42 H13         -1.0760     3.1740     3.7280 ha         1 902       0.104000
     43 H14         -1.0880     4.7410     1.7950 ha         1 902       0.122000
     44 H211        -0.1150     3.3200    -4.6860 h1         1 902       0.017700
     45 H212        -1.7950     3.7990    -4.3010 h1         1 902       0.017700
     46 HN28         1.9210    -0.1140     2.5740 hn         1 902       0.469000
     47 H29          2.7000     0.1800    -0.2690 h1         1 902       0.074700
     48 H301         3.9920    -1.2580     1.3810 hc         1 902       0.069950
     49 H302         3.4940    -2.0640    -0.0970 hc         1 902       0.069950
     50 H311         3.0980    -3.5480     1.7930 h1         1 902       0.051700
     51 H312         2.1420    -2.3280     2.6410 h1         1 902       0.051700
     52 H331        -0.1330    -1.6380     1.6360 h1         1 902       0.051700
     53 H332        -0.6700    -2.4380     0.1530 h1         1 902       0.051700
     54 H341         1.1100    -1.3900    -1.1560 hc         1 902       0.069950
     55 H342         0.1640    -0.1590    -0.3400 hc         1 902       0.069950
     56 H471         0.7230    -3.7290     3.8050 h1         1 902       0.092700
     57 H472        -0.8460    -3.2770     3.0920 h1         1 902       0.092700
     58 H51          1.0000    -5.8930     5.0000 ha         1 902       0.120000
     59 H52         -0.1120    -7.7100     6.2820 ha         1 902       0.113500
     60 H53         -2.5690    -8.0740     6.0620 ha         1 902       0.110000
     61 H54         -3.9140    -6.6120     4.5550 ha         1 902       0.113500
     62 H55         -2.8080    -4.7930     3.2690 ha         1 902       0.120000
     63 HN62         1.4860    10.6400    -2.9270 hn         1 902       0.392000
@<TRIPOS>BOND
     1     1     2 1   
     2     1     5 1   
     3     2     3 2   
     4     2     6 1   
     5     3     4 1   
     6     3    16 1   
     7     4     5 2   
     8     4    15 1   
     9     5     9 1   
    10     6     7 2   
    11     6     8 1   
    12     7    39 1   
    13     8    38 2   
    14     9    10 ar  
    15     9    14 ar  
    16    10    11 ar  
    17    10    40 1   
    18    11    12 ar  
    19    11    21 1   
    20    12    13 ar  
    21    12    41 1   
    22    13    14 ar  
    23    13    42 1   
    24    14    43 1   
    25    16    17 1   
    26    17    18 1   
    27    17    44 1   
    28    17    45 1   
    29    18    19 1   
    30    18    20 1   
    31    21    22 1   
    32    21    46 1   
    33    22    23 1   
    34    22    27 1   
    35    22    47 1   
    36    23    24 1   
    37    23    48 1   
    38    23    49 1   
    39    24    25 1   
    40    24    50 1   
    41    24    51 1   
    42    25    26 1   
    43    25    28 1   
    44    26    27 1   
    45    26    52 1   
    46    26    53 1   
    47    27    54 1   
    48    27    55 1   
    49    28    29 2   
    50    28    30 2   
    51    28    31 1   
    52    31    32 1   
    53    31    56 1   
    54    31    57 1   
    55    32    33 ar  
    56    32    37 ar  
    57    33    34 ar  
    58    33    58 1   
    59    34    35 ar  
    60    34    59 1   
    61    35    36 ar  
    62    35    60 1   
    63    36    37 ar  
    64    36    61 1   
    65    37    62 1   
    66    38    39 1   
    67    39    63 1   
@<TRIPOS>SUBSTRUCTURE
     1 902         1 TEMP              0 ****  ****    0 ROOT
