@<TRIPOS>MOLECULE
903
   82    85     1     0     0
SMALL
No Charge or Current Charge


@<TRIPOS>ATOM
      1 C1          19.8360    26.6850    20.2140 ca         1 903      -0.155300
      2 C2          19.1260    26.1320    19.1430 ca         1 903      -0.106000
      3 C3          18.4750    26.9630    18.2200 ca         1 903      -0.091000
      4 C4          18.4920    28.3780    18.3450 ca         1 903       0.088700
      5 C5          19.2490    28.9370    19.4240 ca         1 903      -0.097600
      6 C6          19.9000    28.0800    20.3400 ca         1 903      -0.091000
      7 C7          20.5360    25.7830    21.2270 c3         1 903      -0.019100
      8 C8          19.6310    25.3770    22.4220 c3         1 903       0.038700
      9 C9          20.4050    24.4850    23.4350 c          1 903       0.594100
     10 N10         20.7360    23.2280    22.9730 ns         1 903      -0.489900
     11 O11         20.7080    24.8550    24.5640 o          1 903      -0.631100
     12 N12         19.0680    26.5720    23.0980 ns         1 903      -0.503900
     13 C13         17.8260    27.1100    22.8490 c          1 903       0.604100
     14 O14         17.0130    26.5830    22.1040 o          1 903      -0.578100
     15 C15         17.5360    28.4080    23.5910 c3         1 903      -0.176100
     16 C16         21.4730    22.2010    23.7430 c3         1 903       0.043700
     17 C17         22.1350    21.1760    22.7650 c          1 903       0.545000
     18 N18         22.8720    20.1040    23.3150 n          1 903      -0.411800
     19 O19         21.9580    21.2580    21.5540 o          1 903      -0.551000
     20 C20         23.3560    20.1430    24.7090 c3         1 903       0.109000
     21 C21         22.2570    19.7680    25.7190 c3         1 903      -0.101400
     22 C22         23.3390    18.9780    22.4700 c3         1 903       0.138300
     23 C23         22.5420    17.7060    22.7210 ca         1 903      -0.101300
     24 C24         21.2790    20.9260    26.0180 c3         1 903      -0.071400
     25 C25         20.5480    21.5130    24.7870 c3         1 903      -0.084400
     26 C26         23.0820    16.6640    23.4960 ca         1 903      -0.099000
     27 C27         22.3320    15.5010    23.7400 ca         1 903      -0.103500
     28 C28         21.0220    15.3480    23.2200 cp         1 903      -0.042000
     29 C29         20.4940    16.4110    22.4440 ca         1 903      -0.103500
     30 C30         21.2430    17.5740    22.1980 ca         1 903      -0.099000
     31 C31         20.2230    14.1090    23.4840 cp         1 903      -0.026000
     32 C32         18.8150    14.1650    23.6520 ca         1 903      -0.100500
     33 C33         18.0650    13.0030    23.9010 ca         1 903      -0.113000
     34 C34         18.7060    11.7570    23.9860 ca         1 903      -0.114000
     35 C35         20.0980    11.6750    23.8230 ca         1 903      -0.113000
     36 C36         20.8480    12.8380    23.5750 ca         1 903      -0.100500
     37 C37         19.4060    30.4230    19.6530 c          1 903       0.634700
     38 O38         19.2980    30.7700    20.9800 os         1 903      -0.454100
     39 O39         19.6600    31.2310    18.7680 o          1 903      -0.466000
     40 C40         17.7530    29.2530    17.2900 c3         1 903      -0.055700
     41 C41         16.8170    30.3130    17.9310 c          1 903       0.731500
     42 O42         16.4530    30.1750    19.0920 o          1 903      -0.734250
     43 O43         16.4900    31.2870    17.2600 o          1 903      -0.734250
     44 C75         16.7550    28.4300    16.4290 c          1 903       0.731500
     45 O76         17.0350    28.1930    15.2600 o          1 903      -0.734250
     46 O77         15.7570    27.9550    16.9590 o          1 903      -0.734250
     47 F80         18.7000    29.8500    16.4890 f          1 903      -0.279000
     48 C81         19.4390    32.1560    21.3330 c3         1 903       0.157900
     49 H2          19.0760    25.0520    19.0200 ha         1 903       0.076000
     50 H3          17.9560    26.4760    17.4010 ha         1 903       0.148000
     51 H6          20.4710    28.5060    21.1620 ha         1 903       0.084000
     52 H71         20.8990    24.8780    20.7250 hc         1 903       0.041700
     53 H72         21.4290    26.2870    21.6170 hc         1 903       0.041700
     54 H8          18.8050    24.7650    22.0380 h1         1 903       0.096700
     55 H10         20.4770    23.0050    22.0170 hn         1 903       0.327500
     56 H12         19.6500    27.0600    23.7680 hn         1 903       0.314500
     57 H151        16.5330    28.7970    23.3840 hc         1 903       0.062033
     58 H152        17.6990    28.2530    24.6630 hc         1 903       0.062033
     59 H153        18.3120    29.1390    23.3390 hc         1 903       0.062033
     60 H16         22.2880    22.7110    24.2740 h1         1 903       0.081700
     61 H201        24.1770    19.4220    24.8170 h1         1 903       0.047200
     62 H202        23.7680    21.1330    24.9410 h1         1 903       0.047200
     63 H211        21.7050    18.8920    25.3580 hc         1 903       0.048200
     64 H212        22.7360    19.4710    26.6600 hc         1 903       0.048200
     65 H221        23.2710    19.2370    21.4060 h1         1 903       0.070700
     66 H222        24.4010    18.7930    22.6750 h1         1 903       0.070700
     67 H241        20.5280    20.5680    26.7330 hc         1 903       0.041200
     68 H242        21.8240    21.7320    26.5250 hc         1 903       0.041200
     69 H251        19.8260    22.2480    25.1640 hc         1 903       0.056700
     70 H252        19.9560    20.7300    24.2960 hc         1 903       0.056700
     71 H26         24.0810    16.7560    23.9170 ha         1 903       0.123000
     72 H27         22.7680    14.7170    24.3540 ha         1 903       0.112500
     73 H29         19.4980    16.3290    22.0180 ha         1 903       0.112500
     74 H30         20.8120    18.3750    21.6020 ha         1 903       0.123000
     75 H32         18.3000    15.1220    23.6040 ha         1 903       0.115000
     76 H33         16.9870    13.0690    24.0300 ha         1 903       0.109500
     77 H34         18.1260    10.8570    24.1780 ha         1 903       0.108000
     78 H35         20.5970    10.7100    23.8850 ha         1 903       0.109500
     79 H36         21.9220    12.7500    23.4390 ha         1 903       0.115000
     80 H811        19.3250    32.2850    22.4170 h1         1 903       0.030033
     81 H812        20.4300    32.5330    21.0470 h1         1 903       0.030033
     82 H813        18.6750    32.7660    20.8340 h1         1 903       0.030033
@<TRIPOS>BOND
     1     1     2 ar  
     2     1     6 ar  
     3     1     7 1   
     4     2     3 ar  
     5     2    49 1   
     6     3     4 ar  
     7     3    50 1   
     8     4     5 ar  
     9     4    40 1   
    10     5     6 ar  
    11     5    37 1   
    12     6    51 1   
    13     7     8 1   
    14     7    52 1   
    15     7    53 1   
    16     8     9 1   
    17     8    12 1   
    18     8    54 1   
    19     9    10 1   
    20     9    11 2   
    21    10    16 1   
    22    10    55 1   
    23    12    13 1   
    24    12    56 1   
    25    13    14 2   
    26    13    15 1   
    27    15    57 1   
    28    15    58 1   
    29    15    59 1   
    30    16    17 1   
    31    16    25 1   
    32    16    60 1   
    33    17    18 1   
    34    17    19 2   
    35    18    20 1   
    36    18    22 1   
    37    20    21 1   
    38    20    61 1   
    39    20    62 1   
    40    21    24 1   
    41    21    63 1   
    42    21    64 1   
    43    22    23 1   
    44    22    65 1   
    45    22    66 1   
    46    23    26 ar  
    47    23    30 ar  
    48    24    25 1   
    49    24    67 1   
    50    24    68 1   
    51    25    69 1   
    52    25    70 1   
    53    26    27 ar  
    54    26    71 1   
    55    27    28 ar  
    56    27    72 1   
    57    28    29 ar  
    58    28    31 1   
    59    29    30 ar  
    60    29    73 1   
    61    30    74 1   
    62    31    32 ar  
    63    31    36 ar  
    64    32    33 ar  
    65    32    75 1   
    66    33    34 ar  
    67    33    76 1   
    68    34    35 ar  
    69    34    77 1   
    70    35    36 ar  
    71    35    78 1   
    72    36    79 1   
    73    37    38 1   
    74    37    39 2   
    75    38    48 1   
    76    40    41 1   
    77    40    44 1   
    78    40    47 1   
    79    41    42 1   
    80    41    43 1   
    81    44    45 1   
    82    44    46 1   
    83    48    80 1   
    84    48    81 1   
    85    48    82 1   
@<TRIPOS>SUBSTRUCTURE
     1 903         1 TEMP              0 ****  ****    0 ROOT
