@<TRIPOS>MOLECULE
903
   82    85     1     0     0
SMALL
abcg2


@<TRIPOS>ATOM
      1 C1          19.2750    26.0840    20.3500 ca         1 903      -0.155300
      2 C2          18.0150    25.7350    19.8750 ca         1 903      -0.106000
      3 C3          17.3020    26.5990    19.0560 ca         1 903      -0.091000
      4 C4          17.8080    27.8410    18.6690 ca         1 903       0.088700
      5 C5          19.0850    28.1890    19.1440 ca         1 903      -0.097600
      6 C6          19.7920    27.3200    19.9740 ca         1 903      -0.091000
      7 C7          20.0200    25.1860    21.2960 c3         1 903      -0.019100
      8 C8          19.6860    25.5100    22.7750 c3         1 903       0.038700
      9 C9          20.4050    24.5070    23.6750 c          1 903       0.594100
     10 N10         19.7230    23.3760    23.9180 ns         1 903      -0.489900
     11 O11         21.5350    24.7260    24.1100 o          1 903      -0.631100
     12 N12         20.0800    26.8530    23.1270 ns         1 903      -0.503900
     13 C13         19.2180    27.8870    23.2280 c          1 903       0.604100
     14 O14         17.9970    27.7510    23.1370 o          1 903      -0.578100
     15 C15         19.8490    29.2430    23.4300 c3         1 903      -0.176100
     16 C16         20.3120    22.2380    24.5900 c3         1 903       0.043700
     17 C17         21.3100    21.5280    23.6550 c          1 903       0.545000
     18 N18         22.1430    20.6370    24.2310 n          1 903      -0.411800
     19 O19         21.3060    21.7600    22.4460 o          1 903      -0.551000
     20 C20         22.0850    20.2650    25.6510 c3         1 903       0.109000
     21 C21         20.8130    19.5160    26.0540 c3         1 903      -0.101400
     22 C22         23.0500    19.8500    23.3880 c3         1 903       0.138300
     23 C23         22.5610    18.4370    23.1860 ca         1 903      -0.101300
     24 C24         19.6020    20.4230    26.2630 c3         1 903      -0.071400
     25 C25         19.2080    21.2730    25.0570 c3         1 903      -0.084400
     26 C26         23.2150    17.3580    23.7740 ca         1 903      -0.099000
     27 C27         22.7360    16.0620    23.6200 ca         1 903      -0.103500
     28 C28         21.5840    15.8060    22.8720 cp         1 903      -0.042000
     29 C29         20.9320    16.8960    22.2780 ca         1 903      -0.103500
     30 C30         21.4130    18.1860    22.4320 ca         1 903      -0.099000
     31 C31         21.0660    14.4290    22.7110 cp         1 903      -0.026000
     32 C32         19.6890    14.1810    22.6560 ca         1 903      -0.100500
     33 C33         19.2000    12.8890    22.5090 ca         1 903      -0.113000
     34 C34         20.0790    11.8140    22.4130 ca         1 903      -0.114000
     35 C35         21.4500    12.0450    22.4650 ca         1 903      -0.113000
     36 C36         21.9380    13.3380    22.6130 ca         1 903      -0.100500
     37 C37         19.7760    29.4580    18.7670 c          1 903       0.634700
     38 O38         20.3190    30.0560    19.8380 os         1 903      -0.454100
     39 O39         19.9100    29.8750    17.6380 o          1 903      -0.466000
     40 C40         16.9960    28.7130    17.7270 c3         1 903      -0.055700
     41 C41         17.0190    30.2500    18.0120 c          1 903       0.731500
     42 O42         17.2610    30.6080    19.1870 o          1 903      -0.734250
     43 O43         16.7410    30.9820    17.0370 o          1 903      -0.734250
     44 C75         15.4870    28.2880    17.6920 c          1 903       0.731500
     45 O76         15.0700    27.7280    16.6570 o          1 903      -0.734250
     46 O77         14.8370    28.5570    18.7290 o          1 903      -0.734250
     47 F80         17.5470    28.4960    16.4350 f          1 903      -0.279000
     48 C81         21.0570    31.2660    19.5920 c3         1 903       0.157900
     49 H2          17.5820    24.7810    20.1520 ha         1 903       0.076000
     50 H3          16.3230    26.2970    18.7130 ha         1 903       0.148000
     51 H6          20.7690    27.6160    20.3300 ha         1 903       0.084000
     52 H71         19.7610    24.1440    21.1070 hc         1 903       0.041700
     53 H72         21.0990    25.2940    21.1600 hc         1 903       0.041700
     54 H8          18.6090    25.4370    22.9200 h1         1 903       0.096700
     55 H10         18.8380    23.2420    23.4510 hn         1 903       0.327500
     56 H12         21.0700    27.0290    23.2140 hn         1 903       0.314500
     57 H151        19.2700    29.8050    24.1610 hc         1 903       0.062033
     58 H152        20.8890    29.1840    23.7500 hc         1 903       0.062033
     59 H153        19.8080    29.7760    22.4770 hc         1 903       0.062033
     60 H16         20.8520    22.6190    25.4580 h1         1 903       0.081700
     61 H201        22.9510    19.6310    25.8300 h1         1 903       0.047200
     62 H202        22.2150    21.1550    26.2710 h1         1 903       0.047200
     63 H211        20.5970    18.7570    25.2980 hc         1 903       0.048200
     64 H212        21.0170    18.9880    26.9880 hc         1 903       0.048200
     65 H221        23.1320    20.3660    22.4350 h1         1 903       0.070700
     66 H222        24.0310    19.8420    23.8630 h1         1 903       0.070700
     67 H241        18.7440    19.8120    26.5510 hc         1 903       0.041200
     68 H242        19.8060    21.0930    27.1050 hc         1 903       0.041200
     69 H251        18.3400    21.8770    25.3280 hc         1 903       0.056700
     70 H252        18.9060    20.6370    24.2190 hc         1 903       0.056700
     71 H26         24.1020    17.5320    24.3720 ha         1 903       0.123000
     72 H27         23.2530    15.2450    24.1070 ha         1 903       0.112500
     73 H29         20.0490    16.7270    21.6750 ha         1 903       0.112500
     74 H30         20.8920    19.0130    21.9650 ha         1 903       0.123000
     75 H32         18.9930    15.0050    22.7480 ha         1 903       0.115000
     76 H33         18.1310    12.7210    22.4770 ha         1 903       0.109500
     77 H34         19.6990    10.8070    22.2970 ha         1 903       0.108000
     78 H35         22.1440    11.2170    22.3830 ha         1 903       0.109500
     79 H36         23.0070    13.5040    22.6330 ha         1 903       0.115000
     80 H811        21.4040    31.5980    20.5670 h1         1 903       0.030033
     81 H812        21.9010    31.0690    18.9330 h1         1 903       0.030033
     82 H813        20.4070    32.0170    19.1430 h1         1 903       0.030033
@<TRIPOS>BOND
     1     1     2 ar  
     2     1     6 ar  
     3     1     7 1   
     4     2     3 ar  
     5     2    49 1   
     6     3     4 ar  
     7     3    50 1   
     8     4     5 ar  
     9     4    40 1   
    10     5     6 ar  
    11     5    37 1   
    12     6    51 1   
    13     7     8 1   
    14     7    52 1   
    15     7    53 1   
    16     8     9 1   
    17     8    12 1   
    18     8    54 1   
    19     9    10 1   
    20     9    11 2   
    21    10    16 1   
    22    10    55 1   
    23    12    13 1   
    24    12    56 1   
    25    13    14 2   
    26    13    15 1   
    27    15    57 1   
    28    15    58 1   
    29    15    59 1   
    30    16    17 1   
    31    16    25 1   
    32    16    60 1   
    33    17    18 1   
    34    17    19 2   
    35    18    20 1   
    36    18    22 1   
    37    20    21 1   
    38    20    61 1   
    39    20    62 1   
    40    21    24 1   
    41    21    63 1   
    42    21    64 1   
    43    22    23 1   
    44    22    65 1   
    45    22    66 1   
    46    23    26 ar  
    47    23    30 ar  
    48    24    25 1   
    49    24    67 1   
    50    24    68 1   
    51    25    69 1   
    52    25    70 1   
    53    26    27 ar  
    54    26    71 1   
    55    27    28 ar  
    56    27    72 1   
    57    28    29 ar  
    58    28    31 1   
    59    29    30 ar  
    60    29    73 1   
    61    30    74 1   
    62    31    32 ar  
    63    31    36 ar  
    64    32    33 ar  
    65    32    75 1   
    66    33    34 ar  
    67    33    76 1   
    68    34    35 ar  
    69    34    77 1   
    70    35    36 ar  
    71    35    78 1   
    72    36    79 1   
    73    37    38 1   
    74    37    39 2   
    75    38    48 1   
    76    40    41 1   
    77    40    44 1   
    78    40    47 1   
    79    41    42 1   
    80    41    43 1   
    81    44    45 1   
    82    44    46 1   
    83    48    80 1   
    84    48    81 1   
    85    48    82 1   
@<TRIPOS>SUBSTRUCTURE
     1 903         1 TEMP              0 ****  ****    0 ROOT
