@<TRIPOS>MOLECULE
904
   58    62     1     0     0
SMALL
bcc


@<TRIPOS>ATOM
      1 S1          -6.0380    -0.8280     0.9600 s6         1 904       1.441800
      2 C2           0.1270     1.5770    -0.3700 cc         1 904      -0.240400
      3 C4          -2.1410     0.8660    -1.1740 ca         1 904      -0.247600
      4 C5           1.5280     1.5130    -0.0630 ca         1 904      -0.150100
      5 N6          -5.2250     0.6380     0.8920 nu         1 904      -0.685500
      6 C8          -0.3190     2.7960     0.1050 cd         1 904      -0.022100
      7 C10         -4.3750     0.8580    -0.2090 ca         1 904       0.044600
      8 C11         -3.0000     0.6930    -0.1070 ca         1 904       0.153900
      9 C12          1.8450     2.7170     0.5930 ca         1 904       0.420800
     10 N13          0.6990     3.4670     0.6710 na         1 904      -0.256100
     11 C15          7.0300    -1.6830    -0.0960 ca         1 904       0.699300
     12 C16          2.5540     0.5930    -0.2280 ca         1 904      -0.030000
     13 N18          3.0270     3.0700     1.0560 nb         1 904      -0.668000
     14 N19          6.1800    -1.6060    -1.1180 nb         1 904      -0.703500
     15 N20          6.9210    -0.9800     1.0280 nb         1 904      -0.703500
     16 C21          8.1630    -2.6140    -0.2310 cx         1 904      -0.196000
     17 C23          3.8130     0.9320     0.2570 cp         1 904      -0.164300
     18 N24         -4.9490    -2.0190     0.7920 n3         1 904      -0.827500
     19 C25          8.6490    -3.3750     0.9770 cx         1 904      -0.104900
     20 C28          9.4830    -2.2830     0.4160 cx         1 904      -0.104900
     21 C31          4.9500     0.0120     0.1300 cp         1 904      -0.275600
     22 C32         -2.7100     1.2020    -2.3910 ca         1 904       0.192900
     23 O33         -6.5960    -0.8430     2.3000 o          1 904      -0.613300
     24 O34         -6.9050    -0.8700    -0.1990 o          1 904      -0.613300
     25 O35         -0.2140    -0.4450    -1.4980 o          1 904      -0.506100
     26 C36          5.8970    -0.1540     1.1370 ca         1 904       0.451700
     27 C38          5.1630    -0.7680    -1.0010 ca         1 904       0.451700
     28 C40          3.9900     2.1810     0.8790 ca         1 904       0.431200
     29 C42         -4.8940     1.2200    -1.4470 ca         1 904      -0.047000
     30 C44         -4.0680     1.3890    -2.5470 ca         1 904      -0.182000
     31 F46         -2.4750     0.3470     1.0720 f          1 904      -0.134900
     32 F47         -1.8980     1.3680    -3.4380 f          1 904      -0.120900
     33 C48         -4.8940    -2.8910    -0.3810 c3         1 904       0.237800
     34 C51         -4.0670    -2.3390     1.9040 c3         1 904       0.211100
     35 C55         -3.8150    -2.5040    -1.3760 c3         1 904      -0.114100
     36 H1          -4.8680     0.9260     1.7970 hn         1 904       0.440800
     37 H2          -1.3060     3.2280     0.0630 h4         1 904       0.176000
     38 H3           0.6300     4.3810     1.0920 hn         1 904       0.318700
     39 H4           2.3790    -0.3650    -0.6990 ha         1 904       0.163000
     40 H5           8.1960    -3.1320    -1.1810 hc         1 904       0.103700
     41 H6           8.1360    -3.1940     1.9120 hc         1 904       0.078950
     42 H7           8.9580    -4.4000     0.8160 hc         1 904       0.078950
     43 H8          10.3780    -2.5400    -0.1350 hc         1 904       0.078950
     44 H9           9.5370    -1.3530     0.9690 hc         1 904       0.078950
     45 H10          5.8140     0.3940     2.0710 h4         1 904       0.027600
     46 H11          4.4900    -0.7010    -1.8510 h4         1 904       0.027600
     47 H12          4.9730     2.4670     1.2350 h4         1 904       0.026100
     48 H13         -5.9580     1.3720    -1.5480 ha         1 904       0.173000
     49 H14         -4.4750     1.6730    -3.5080 ha         1 904       0.167000
     50 H15         -4.7180    -3.9000    -0.0050 h1         1 904       0.061200
     51 H16         -5.8670    -2.9130    -0.8670 h1         1 904       0.061200
     52 H17         -4.4140    -3.2280     2.4330 h1         1 904       0.045700
     53 H18         -3.0620    -2.5260     1.5280 h1         1 904       0.045700
     54 H19         -3.9980    -1.5220     2.6170 h1         1 904       0.045700
     55 H20         -4.0210    -1.5360    -1.8310 hc         1 904       0.045033
     56 H21         -2.8300    -2.4600    -0.9110 hc         1 904       0.045033
     57 H22         -3.7690    -3.2460    -2.1740 hc         1 904       0.045033
     58 C3          -0.6680     0.5860    -1.0420 c          1 904       0.643900
@<TRIPOS>BOND
     1     1     5 1   
     2     1    18 1   
     3     1    23 2   
     4     1    24 2   
     5     2     4 1   
     6     2     6 2   
     7     2    58 1   
     8     3     8 ar  
     9     3    22 ar  
    10     3    58 1   
    11     4     9 ar  
    12     4    12 ar  
    13     5     7 1   
    14     5    36 1   
    15     6    10 1   
    16     6    37 1   
    17     7     8 ar  
    18     7    29 ar  
    19     8    31 1   
    20     9    10 1   
    21     9    13 ar  
    22    10    38 1   
    23    11    14 ar  
    24    11    15 ar  
    25    11    16 1   
    26    12    17 ar  
    27    12    39 1   
    28    13    28 ar  
    29    14    27 ar  
    30    15    26 ar  
    31    16    19 1   
    32    16    20 1   
    33    16    40 1   
    34    17    21 1   
    35    17    28 ar  
    36    18    33 1   
    37    18    34 1   
    38    19    20 1   
    39    19    41 1   
    40    19    42 1   
    41    20    43 1   
    42    20    44 1   
    43    21    26 ar  
    44    21    27 ar  
    45    22    30 ar  
    46    22    32 1   
    47    25    58 2   
    48    26    45 1   
    49    27    46 1   
    50    28    47 1   
    51    29    30 ar  
    52    29    48 1   
    53    30    49 1   
    54    33    35 1   
    55    33    50 1   
    56    33    51 1   
    57    34    52 1   
    58    34    53 1   
    59    34    54 1   
    60    35    55 1   
    61    35    56 1   
    62    35    57 1   
@<TRIPOS>SUBSTRUCTURE
     1 904         1 TEMP              0 ****  ****    0 ROOT
