@<TRIPOS>MOLECULE
904
   58    62     1     0     0
SMALL
No Charge or Current Charge


@<TRIPOS>ATOM
      1 S1          -5.9630    -0.5640     1.1020 s6         1 904       1.300200
      2 C2           0.5750     1.6270    -0.2170 cc         1 904      -0.240400
      3 C4          -1.4600     0.4840    -1.2220 ca         1 904      -0.247600
      4 C5           1.9390     1.8230     0.2050 ca         1 904      -0.084800
      5 N6          -4.5090     0.1960     0.9300 nu         1 904      -0.879100
      6 C8          -0.1360     2.7270     0.2510 cd         1 904      -0.072100
      7 C10         -3.7020     0.2990    -0.2180 ca         1 904       0.183000
      8 C11         -2.2920     0.3780    -0.0890 ca         1 904       0.189000
      9 C12          2.0050     2.9960     0.9230 ca         1 904       0.355500
     10 N13          0.7490     3.5650     0.9720 na         1 904      -0.306400
     11 C15          7.8790    -0.7080     0.0940 ca         1 904       0.173300
     12 C16          3.0770     1.0290     0.0010 ca         1 904      -0.012000
     13 N18          3.1450     3.4580     1.4640 nb         1 904      -0.668000
     14 N19          6.9230    -0.8970    -0.8390 nb         1 904      -0.177500
     15 N20          7.8030     0.1210     1.1550 nb         1 904      -0.177500
     16 C21          9.1570    -1.4770    -0.0770 cx         1 904      -0.196000
     17 C23          4.3030     1.4820     0.5560 cp         1 904      -0.099000
     18 N24         -5.8190    -1.9600     0.1300 n3         1 904      -0.827500
     19 C25          9.1680    -2.9850    -0.2220 cx         1 904      -0.104900
     20 C28          9.7200    -2.3460     1.0290 cx         1 904      -0.104900
     21 C31          5.5750     0.7020     0.3900 cp         1 904      -0.145000
     22 C32         -2.0430     0.4850    -2.4990 ca         1 904       0.228000
     23 O33         -6.0690    -0.9750     2.4990 o          1 904      -0.542500
     24 O34         -6.9410     0.3260     0.4780 o          1 904      -0.542500
     25 O35          0.7370    -0.2920    -1.6230 o          1 904      -0.506100
     26 C36          6.6590     0.8190     1.2990 ca         1 904       0.123400
     27 C38          5.7810    -0.1990    -0.6880 ca         1 904       0.123400
     28 C40          4.2650     2.7110     1.2800 ca         1 904       0.365900
     29 C42         -4.2630     0.3280    -1.5120 ca         1 904      -0.029000
     30 C44         -3.4350     0.4150    -2.6450 ca         1 904      -0.164000
     31 F46         -1.7360     0.3050     1.1450 f          1 904      -0.170000
     32 F47         -1.2720     0.5850    -3.6040 f          1 904      -0.156000
     33 C48         -7.1040    -2.6720    -0.0440 c3         1 904       0.237800
     34 C51         -4.6960    -2.8490     0.5120 c3         1 904       0.211100
     35 C55         -7.0980    -3.7250    -1.1680 c3         1 904      -0.114100
     36 H1          -4.0440     0.0380     1.8130 hn         1 904       0.496000
     37 H2          -1.1860     2.9840     0.1170 h4         1 904       0.226000
     38 H3           0.5220     4.4390     1.4290 hn         1 904       0.369000
     39 H4           3.0170     0.0950    -0.5480 ha         1 904       0.145000
     40 H5           9.8790    -0.9280    -0.6770 hc         1 904       0.103700
     41 H6           8.2220    -3.5160    -0.1410 hc         1 904       0.078950
     42 H7           9.8750    -3.4220    -0.9230 hc         1 904       0.078950
     43 H8          10.7990    -2.3530     1.1690 hc         1 904       0.078950
     44 H9           9.1430    -2.4500     1.9450 hc         1 904       0.078950
     45 H10          6.6060     1.4730     2.1670 h4         1 904       0.027600
     46 H11          5.0230    -0.3540    -1.4530 h4         1 904       0.027600
     47 H12          5.1730     3.1200     1.7200 h4         1 904       0.026100
     48 H13         -5.3390     0.2760    -1.6480 ha         1 904       0.155000
     49 H14         -3.8730     0.4310    -3.6400 ha         1 904       0.149000
     50 H15         -7.4060    -3.1570     0.8960 h1         1 904       0.061200
     51 H16         -7.8970    -1.9530    -0.2960 h1         1 904       0.061200
     52 H17         -4.8800    -3.3200     1.4870 h1         1 904       0.045700
     53 H18         -4.5500    -3.6460    -0.2280 h1         1 904       0.045700
     54 H19         -3.7460    -2.3030     0.5740 h1         1 904       0.045700
     55 H20         -6.7340    -3.2860    -2.1050 hc         1 904       0.045033
     56 H21         -6.4660    -4.5820    -0.9110 hc         1 904       0.045033
     57 H22         -8.1140    -4.0990    -1.3370 hc         1 904       0.045033
     58 C3           0.0280     0.5480    -1.0850 c          1 904       0.643900
@<TRIPOS>BOND
     1     1     5 1   
     2     1    18 1   
     3     1    23 2   
     4     1    24 2   
     5     2     4 1   
     6     2     6 2   
     7     2    58 1   
     8     3     8 ar  
     9     3    22 ar  
    10     3    58 1   
    11     4     9 ar  
    12     4    12 ar  
    13     5     7 1   
    14     5    36 1   
    15     6    10 1   
    16     6    37 1   
    17     7     8 ar  
    18     7    29 ar  
    19     8    31 1   
    20     9    10 1   
    21     9    13 ar  
    22    10    38 1   
    23    11    14 ar  
    24    11    15 ar  
    25    11    16 1   
    26    12    17 ar  
    27    12    39 1   
    28    13    28 ar  
    29    14    27 ar  
    30    15    26 ar  
    31    16    19 1   
    32    16    20 1   
    33    16    40 1   
    34    17    21 1   
    35    17    28 ar  
    36    18    33 1   
    37    18    34 1   
    38    19    20 1   
    39    19    41 1   
    40    19    42 1   
    41    20    43 1   
    42    20    44 1   
    43    21    26 ar  
    44    21    27 ar  
    45    22    30 ar  
    46    22    32 1   
    47    25    58 2   
    48    26    45 1   
    49    27    46 1   
    50    28    47 1   
    51    29    30 ar  
    52    29    48 1   
    53    30    49 1   
    54    33    35 1   
    55    33    50 1   
    56    33    51 1   
    57    34    52 1   
    58    34    53 1   
    59    34    54 1   
    60    35    55 1   
    61    35    56 1   
    62    35    57 1   
@<TRIPOS>SUBSTRUCTURE
     1 904         1 TEMP              0 ****  ****    0 ROOT
