@<TRIPOS>MOLECULE
905
   66    68     1     0     0
SMALL
No Charge or Current Charge


@<TRIPOS>ATOM
      1 O1          -1.9710     1.9510     5.4900 oh         1 905      -0.576100
      2 C1          -1.5320     0.8850     4.7790 ca         1 905       0.270100
      3 C2          -2.0260     0.6930     3.4860 ca         1 905      -0.264000
      4 C3          -1.5790    -0.3820     2.7190 ca         1 905       0.386000
      5 N1          -2.0830    -0.5460     1.4340 nu         1 905      -0.947200
      6 C4          -1.3970    -1.2140     0.2820 c3         1 905       0.202800
      7 C5          -2.1760    -1.1080    -1.0750 c          1 905       0.627100
      8 O2          -3.0690    -0.2910    -1.2650 o          1 905      -0.539100
      9 N2          -1.7310    -1.9520    -2.0510 ns         1 905      -0.564300
     10 S1          -1.7740    -1.6330    -3.6890 sy         1 905       1.173300
     11 O3          -0.9740    -2.6990    -4.3010 o          1 905      -0.518000
     12 O4          -3.1790    -1.4170    -4.0530 o          1 905      -0.518000
     13 C6          -0.8700    -0.0730    -3.8270 ca         1 905      -0.258500
     14 C7           0.5400    -0.0680    -3.7470 ca         1 905      -0.068000
     15 C8           1.2450     1.1470    -3.8020 ca         1 905      -0.089000
     16 C9           0.5490     2.3610    -3.9360 ca         1 905      -0.131000
     17 C10         -0.8530     2.3690    -4.0130 ca         1 905       0.290000
     18 N3          -1.5240     3.5610    -4.1430 nv         1 905      -1.077000
     19 C11         -1.5610     1.1550    -3.9550 ca         1 905      -0.075000
     20 C12          0.0030    -0.6220     0.0690 ca         1 905      -0.102300
     21 C13          1.1350    -1.4520    -0.0650 ca         1 905       0.092000
     22 F1           0.9980    -2.7960     0.0300 f          1 905      -0.176000
     23 C14          2.4080    -0.9000    -0.3260 ca         1 905       0.155100
     24 O5           3.4830    -1.7620    -0.4570 os         1 905      -0.331100
     25 C15          4.8130    -1.3000    -0.7440 c3         1 905       0.165600
     26 C16          5.7250    -2.5340    -0.8210 c3         1 905      -0.095100
     27 C17          2.5510     0.4980    -0.4630 ca         1 905      -0.266000
     28 C18          1.4220     1.3330    -0.3380 ca         1 905       0.186100
     29 O6           1.4920     2.7020    -0.4850 os         1 905      -0.336100
     30 C19          2.7040     3.3730    -0.8620 c3         1 905       0.165600
     31 C20          2.3830     4.8710    -0.9880 c3         1 905      -0.096100
     32 C21          0.1640     0.7730    -0.0730 ca         1 905      -0.145000
     33 C22         -0.6350    -1.2670     3.2500 ca         1 905      -0.239000
     34 C23         -0.1370    -1.0810     4.5490 ca         1 905      -0.002000
     35 C24         -0.5960    -0.0060     5.3450 ca         1 905      -0.336900
     36 C25         -0.0600     0.2090     6.7140 ce         1 905       0.736800
     37 N4          -0.2630     1.2750     7.3660 n2         1 905      -0.934100
     38 N5           0.3650    -0.8600     7.3890 nv         1 905      -1.072200
     39 HO1         -1.4230     1.9130     6.3290 ho         1 905       0.545000
     40 H2          -2.7500     1.3900     3.0790 ha         1 905       0.130000
     41 HN1         -2.8340     0.1010     1.1830 hn         1 905       0.502000
     42 H4          -1.3140    -2.2880     0.4970 h1         1 905       0.097700
     43 HN2         -0.9640    -2.5690    -1.8440 hn         1 905       0.349500
     44 H7           1.0940    -0.9990    -3.6320 ha         1 905       0.136000
     45 H8           2.3300     1.1470    -3.7360 ha         1 905       0.111000
     46 H9           1.1020     3.2950    -3.9740 ha         1 905       0.111000
     47 HN31        -1.0060     4.4220    -4.3050 hn         1 905       0.457500
     48 HN32        -2.5260     3.5710    -4.3250 hn         1 905       0.457500
     49 H11         -2.6470     1.1700    -4.0000 ha         1 905       0.148000
     50 H151         5.1720    -0.6290     0.0470 h1         1 905       0.033700
     51 H152         4.8410    -0.7650    -1.7030 h1         1 905       0.033700
     52 H161         6.7560    -2.2300    -1.0390 hc         1 905       0.051033
     53 H162         5.7210    -3.0770     0.1310 hc         1 905       0.051033
     54 H163         5.3910    -3.2120    -1.6140 hc         1 905       0.051033
     55 H17          3.5230     0.9300    -0.6680 ha         1 905       0.124000
     56 H191         3.4840     3.2280    -0.1030 h1         1 905       0.031700
     57 H192         3.0720     2.9980    -1.8260 h1         1 905       0.031700
     58 H201         3.2810     5.4270    -1.2810 hc         1 905       0.049367
     59 H202         1.6120     5.0370    -1.7490 hc         1 905       0.049367
     60 H203         2.0260     5.2710    -0.0320 hc         1 905       0.049367
     61 H21         -0.6960     1.4320     0.0060 ha         1 905       0.146000
     62 H22         -0.2760    -2.1050     2.6610 ha         1 905       0.120000
     63 H23          0.6140    -1.7750     4.9220 ha         1 905       0.100000
     64 HN4          0.3710     1.2590     8.1780 hn         1 905       0.397400
     65 HN51         0.1890    -0.8240     8.3850 hn         1 905       0.470500
     66 HN52         0.1410    -1.7450     6.9530 hn         1 905       0.470500
@<TRIPOS>BOND
     1     1     2 1   
     2     1    39 1   
     3     2     3 ar  
     4     2    35 ar  
     5     3     4 ar  
     6     3    40 1   
     7     4     5 1   
     8     4    33 ar  
     9     5     6 1   
    10     5    41 1   
    11     6     7 1   
    12     6    20 1   
    13     6    42 1   
    14     7     8 2   
    15     7     9 1   
    16     9    10 1   
    17     9    43 1   
    18    10    11 2   
    19    10    12 2   
    20    10    13 1   
    21    13    14 ar  
    22    13    19 ar  
    23    14    15 ar  
    24    14    44 1   
    25    15    16 ar  
    26    15    45 1   
    27    16    17 ar  
    28    16    46 1   
    29    17    18 1   
    30    17    19 ar  
    31    18    47 1   
    32    18    48 1   
    33    19    49 1   
    34    20    21 ar  
    35    20    32 ar  
    36    21    22 1   
    37    21    23 ar  
    38    23    24 1   
    39    23    27 ar  
    40    24    25 1   
    41    25    26 1   
    42    25    50 1   
    43    25    51 1   
    44    26    52 1   
    45    26    53 1   
    46    26    54 1   
    47    27    28 ar  
    48    27    55 1   
    49    28    29 1   
    50    28    32 ar  
    51    29    30 1   
    52    30    31 1   
    53    30    56 1   
    54    30    57 1   
    55    31    58 1   
    56    31    59 1   
    57    31    60 1   
    58    32    61 1   
    59    33    34 ar  
    60    33    62 1   
    61    34    35 ar  
    62    34    63 1   
    63    35    36 1   
    64    36    37 2   
    65    36    38 1   
    66    37    64 1   
    67    38    65 1   
    68    38    66 1   
@<TRIPOS>SUBSTRUCTURE
     1 905         1 TEMP              0 ****  ****    0 ROOT
