@<TRIPOS>MOLECULE
905
   66    68     1     0     0
SMALL
bcc


@<TRIPOS>ATOM
      1 O1          -2.2970     1.6680     5.7120 oh         1 905      -0.537100
      2 C1          -1.7380     0.7380     4.9470 ca         1 905       0.270100
      3 C2          -2.1200     0.6670     3.6120 ca         1 905      -0.282000
      4 C3          -1.5620    -0.2700     2.7420 ca         1 905       0.247600
      5 N1          -2.0040    -0.3180     1.4470 nu         1 905      -0.753600
      6 C4          -1.2990    -1.0200     0.4210 c3         1 905       0.202800
      7 C5          -2.0830    -0.9060    -0.8810 c          1 905       0.694100
      8 O2          -2.8790    -0.0250    -1.0900 o          1 905      -0.539100
      9 N2          -1.7220    -1.8310    -1.8260 ns         1 905      -0.631300
     10 S1          -1.8550    -1.5390    -3.4860 sy         1 905       1.314900
     11 O3          -1.2230    -2.6970    -4.0880 o          1 905      -0.588800
     12 O4          -3.2290    -1.2160    -3.7960 o          1 905      -0.588800
     13 C6          -0.8290    -0.1190    -3.6990 ca         1 905      -0.258500
     14 C7           0.5440    -0.3130    -3.7560 ca         1 905      -0.086000
     15 C8           1.3410     0.8160    -3.8690 ca         1 905      -0.107000
     16 C9           0.7840     2.0810    -3.9210 ca         1 905      -0.149000
     17 C10         -0.6020     2.2670    -3.8550 ca         1 905       0.151600
     18 N3          -1.1440     3.5260    -3.8490 nv         1 905      -0.828200
     19 C11         -1.4170     1.1340    -3.7500 ca         1 905      -0.093000
     20 C12          0.0760    -0.4420     0.0960 ca         1 905      -0.102300
     21 C13          1.1820    -1.2520    -0.0520 ca         1 905       0.056900
     22 F1           1.0670    -2.5850     0.1210 f          1 905      -0.140900
     23 C14          2.4330    -0.7370    -0.3840 ca         1 905       0.155100
     24 O5           3.4320    -1.6240    -0.4800 os         1 905      -0.307900
     25 C15          4.7180    -1.1660    -0.8840 c3         1 905       0.142400
     26 C16          5.6470    -2.3550    -0.9290 c3         1 905      -0.095100
     27 C17          2.5590     0.6320    -0.5870 ca         1 905      -0.284000
     28 C18          1.4420     1.4600    -0.4630 ca         1 905       0.186100
     29 O6           1.4760     2.7870    -0.6650 os         1 905      -0.312900
     30 C19          2.6630     3.3890    -1.1610 c3         1 905       0.142400
     31 C20          2.3580     4.8380    -1.4540 c3         1 905      -0.096100
     32 C21          0.2090     0.9250    -0.1130 ca         1 905      -0.163000
     33 C22         -0.5820    -1.1490     3.2320 ca         1 905      -0.257000
     34 C23         -0.2140    -1.0810     4.5590 ca         1 905      -0.020000
     35 C24         -0.7730    -0.1690     5.4550 ca         1 905      -0.336900
     36 C25         -0.3900    -0.1110     6.8750 ce         1 905       0.736800
     37 N4          -0.8610     0.8610     7.5840 n2         1 905      -0.934100
     38 N5           0.4610    -1.0520     7.3490 nv         1 905      -0.961800
     39 HO1         -1.8530     1.5800     6.6280 ho         1 905       0.506000
     40 H2          -2.8650     1.3650     3.2460 ha         1 905       0.148000
     41 HN1         -2.5690     0.4580     1.1370 hn         1 905       0.446800
     42 H4          -1.2120    -2.0760     0.6890 h1         1 905       0.097700
     43 HN2         -1.0670    -2.5660    -1.5800 hn         1 905       0.349500
     44 H7           0.9850    -1.2990    -3.7150 ha         1 905       0.154000
     45 H8           2.4160     0.7080    -3.9180 ha         1 905       0.129000
     46 H9           1.4310     2.9460    -4.0100 ha         1 905       0.129000
     47 HN31        -0.5870     4.2550    -4.2650 hn         1 905       0.402300
     48 HN32        -2.1180     3.6010    -4.0930 hn         1 905       0.402300
     49 H11         -2.4920     1.2460    -3.7070 ha         1 905       0.166000
     50 H151         5.0920    -0.4180    -0.1780 h1         1 905       0.033700
     51 H152         4.6520    -0.6900    -1.8690 h1         1 905       0.033700
     52 H161         6.6360    -2.0250    -1.2430 hc         1 905       0.051033
     53 H162         5.7440    -2.8210     0.0510 hc         1 905       0.051033
     54 H163         5.3020    -3.1060    -1.6400 hc         1 905       0.051033
     55 H17          3.5230     1.0460    -0.8450 ha         1 905       0.142000
     56 H191         3.4700     3.3050    -0.4250 h1         1 905       0.031700
     57 H192         2.9940     2.8790    -2.0720 h1         1 905       0.031700
     58 H201         3.2520     5.3280    -1.8400 hc         1 905       0.049367
     59 H202         1.5710     4.9340    -2.2030 hc         1 905       0.049367
     60 H203         2.0460     5.3710    -0.5550 hc         1 905       0.049367
     61 H21         -0.6480     1.5810    -0.0290 ha         1 905       0.164000
     62 H22         -0.1040    -1.8790     2.5950 ha         1 905       0.138000
     63 H23          0.5550    -1.7670     4.8910 ha         1 905       0.118000
     64 HN4         -0.5950     0.8340     8.5610 hn         1 905       0.397400
     65 HN51         0.6070    -1.0930     8.3450 hn         1 905       0.415300
     66 HN52         0.5360    -1.9410     6.8870 hn         1 905       0.415300
@<TRIPOS>BOND
     1     1     2 1   
     2     1    39 1   
     3     2     3 ar  
     4     2    35 ar  
     5     3     4 ar  
     6     3    40 1   
     7     4     5 1   
     8     4    33 ar  
     9     5     6 1   
    10     5    41 1   
    11     6     7 1   
    12     6    20 1   
    13     6    42 1   
    14     7     8 2   
    15     7     9 1   
    16     9    10 1   
    17     9    43 1   
    18    10    11 2   
    19    10    12 2   
    20    10    13 1   
    21    13    14 ar  
    22    13    19 ar  
    23    14    15 ar  
    24    14    44 1   
    25    15    16 ar  
    26    15    45 1   
    27    16    17 ar  
    28    16    46 1   
    29    17    18 1   
    30    17    19 ar  
    31    18    47 1   
    32    18    48 1   
    33    19    49 1   
    34    20    21 ar  
    35    20    32 ar  
    36    21    22 1   
    37    21    23 ar  
    38    23    24 1   
    39    23    27 ar  
    40    24    25 1   
    41    25    26 1   
    42    25    50 1   
    43    25    51 1   
    44    26    52 1   
    45    26    53 1   
    46    26    54 1   
    47    27    28 ar  
    48    27    55 1   
    49    28    29 1   
    50    28    32 ar  
    51    29    30 1   
    52    30    31 1   
    53    30    56 1   
    54    30    57 1   
    55    31    58 1   
    56    31    59 1   
    57    31    60 1   
    58    32    61 1   
    59    33    34 ar  
    60    33    62 1   
    61    34    35 ar  
    62    34    63 1   
    63    35    36 1   
    64    36    37 2   
    65    36    38 1   
    66    37    64 1   
    67    38    65 1   
    68    38    66 1   
@<TRIPOS>SUBSTRUCTURE
     1 905         1 TEMP              0 ****  ****    0 ROOT
