@<TRIPOS>MOLECULE
906
   62    64     1     0     0
SMALL
bcc


@<TRIPOS>ATOM
      1 CAA         12.6510     1.0200     1.0220 c3         1 906      -0.099100
      2 CAB         -0.1890     0.6730     1.7310 c3         1 906      -0.094100
      3 CAE          8.5340     0.0780    -0.7010 ce         1 906       0.428800
      4 CAF         -9.4640     0.0420    -0.9540 ca         1 906       0.468200
      5 CAG         -8.3380    -0.6950    -0.6650 ca         1 906      -0.366300
      6 CAH          6.4420    -0.4280    -1.8900 ca         1 906      -0.060500
      7 CAI          6.3140     0.0170     0.4580 ca         1 906      -0.060500
      8 CAJ          5.0750    -0.6080    -1.9400 ca         1 906      -0.200500
      9 CAK          4.9420    -0.1640     0.4240 ca         1 906      -0.200500
     10 CAL         -7.2440     1.3780    -0.1820 ca         1 906      -0.351300
     11 CAM         11.1740     0.9300     1.3210 c3         1 906       0.146400
     12 CAN          2.1420    -0.4630     0.2090 c3         1 906       0.142400
     13 CAO          0.7080    -0.6200    -0.2540 c3         1 906      -0.080400
     14 CAP         -1.7200    -0.7680     0.3260 c3         1 906      -0.106400
     15 CAQ         -2.7440    -1.1530     1.3910 c3         1 906       0.118000
     16 CAR         -4.4880    -2.4650     0.1100 c5         1 906       0.083000
     17 CAS         -5.9610    -2.1700    -0.1550 c5         1 906       0.087000
     18 NAT          9.1700     0.4010     0.3490 n2         1 906      -0.436200
     19 NAU         -9.5470     1.3660    -0.8840 nb         1 906      -0.759000
     20 OAV         10.5120     0.5170     0.1320 os         1 906      -0.199300
     21 OAW          2.9860    -0.6670    -0.9140 os         1 906      -0.325900
     22 CAX         -4.9170    -0.2620     0.7120 c          1 906       0.826500
     23 CAY         -8.4460     2.0150    -0.5060 ca         1 906       0.682200
     24 CAZ          7.0880    -0.1090    -0.6940 ca         1 906      -0.180900
     25 CBA          4.3090    -0.4770    -0.7810 ca         1 906       0.162100
     26 CBB         -7.1770    -0.0110    -0.2580 ca         1 906       0.168600
     27 CBC         -0.3070    -0.5960     0.8890 c3         1 906      -0.050700
     28 NBD         -4.0790    -1.3160     0.8780 n          1 906      -0.482800
     29 NBE         -6.0360    -0.7290     0.0220 n          1 906      -0.394000
     30 HAA         12.8590     1.7430     0.2340 hc         1 906       0.043367
     31 HAAA        13.1790     1.3440     1.9170 hc         1 906       0.043367
     32 HAAB        13.0610     0.0550     0.7240 hc         1 906       0.043367
     33 HAB         -0.2700     1.5660     1.1060 hc         1 906       0.037700
     34 HABA        -0.9680     0.7340     2.4910 hc         1 906       0.037700
     35 HABB         0.7630     0.7260     2.2600 hc         1 906       0.037700
     36 HNAC        -7.8350     3.8830     0.0460 hn         1 906       0.418300
     37 HNAA        -9.4480     3.7730    -0.4680 hn         1 906       0.418300
     38 HAE          9.0480    -0.0720    -1.6510 h4         1 906       0.001800
     39 HAF        -10.3670    -0.4760    -1.2600 h4         1 906       0.012100
     40 HAG         -8.3790    -1.7710    -0.7420 ha         1 906       0.136000
     41 HAH          7.0180    -0.5340    -2.8010 ha         1 906       0.139500
     42 HAI          6.7830     0.2610     1.4010 ha         1 906       0.139500
     43 HAJ          4.5900    -0.8550    -2.8750 ha         1 906       0.141500
     44 HAK          4.3850    -0.0630     1.3450 ha         1 906       0.141500
     45 HAL         -6.3900     1.9610     0.1200 ha         1 906       0.171000
     46 HAM         10.9860     0.2120     2.1240 h1         1 906       0.036200
     47 HAMA        10.7890     1.9010     1.6470 h1         1 906       0.036200
     48 HAN          2.3120     0.5370     0.6220 h1         1 906       0.037200
     49 HANA         2.3710    -1.1920     0.9960 h1         1 906       0.037200
     50 HAO          0.4740     0.1740    -0.9710 hc         1 906       0.056200
     51 HAOA         0.6150    -1.5690    -0.7890 hc         1 906       0.056200
     52 HAP         -1.7050    -1.5410    -0.4490 hc         1 906       0.050700
     53 HAPA        -2.0370     0.1590    -0.1620 hc         1 906       0.050700
     54 HAQ         -2.4490    -2.0940     1.8610 h1         1 906       0.061200
     55 HAQA        -2.7820    -0.4050     2.1820 h1         1 906       0.061200
     56 HAR         -4.3540    -3.3920     0.6660 h1         1 906       0.052700
     57 HARA        -3.9270    -2.5500    -0.8260 h1         1 906       0.052700
     58 HAS         -6.2540    -2.4680    -1.1590 h1         1 906       0.060200
     59 HASA        -6.6050    -2.6870     0.5610 h1         1 906       0.060200
     60 HBC         -0.0990    -1.4560     1.5400 hc         1 906       0.043700
     61 OAD         -4.7280     0.8690     1.1020 o          1 906      -0.629500
     62 NAC         -8.5230     3.3800    -0.4850 nv         1 906      -0.950500
@<TRIPOS>BOND
     1     1    11 1   
     2     1    30 1   
     3     1    31 1   
     4     1    32 1   
     5     2    27 1   
     6     2    33 1   
     7     2    34 1   
     8     2    35 1   
     9     3    18 2   
    10     3    24 1   
    11     3    38 1   
    12     4     5 ar  
    13     4    19 ar  
    14     4    39 1   
    15     5    26 ar  
    16     5    40 1   
    17     6     8 ar  
    18     6    24 ar  
    19     6    41 1   
    20     7     9 ar  
    21     7    24 ar  
    22     7    42 1   
    23     8    25 ar  
    24     8    43 1   
    25     9    25 ar  
    26     9    44 1   
    27    10    23 ar  
    28    10    26 ar  
    29    10    45 1   
    30    11    20 1   
    31    11    46 1   
    32    11    47 1   
    33    12    13 1   
    34    12    21 1   
    35    12    48 1   
    36    12    49 1   
    37    13    27 1   
    38    13    50 1   
    39    13    51 1   
    40    14    15 1   
    41    14    27 1   
    42    14    52 1   
    43    14    53 1   
    44    15    28 1   
    45    15    54 1   
    46    15    55 1   
    47    16    17 1   
    48    16    28 1   
    49    16    56 1   
    50    16    57 1   
    51    17    29 1   
    52    17    58 1   
    53    17    59 1   
    54    18    20 1   
    55    19    23 ar  
    56    21    25 1   
    57    22    28 1   
    58    22    29 1   
    59    22    61 2   
    60    23    62 1   
    61    26    29 1   
    62    27    60 1   
    63    36    62 1   
    64    37    62 1   
@<TRIPOS>SUBSTRUCTURE
     1 906         1 TEMP              0 ****  ****    0 ROOT
