@<TRIPOS>MOLECULE
906
   62    64     1     0     0
SMALL
No Charge or Current Charge


@<TRIPOS>ATOM
      1 CAA         13.0490     0.3070     1.0880 c3         1 906      -0.099100
      2 CAB         -0.2760     0.9590     1.9030 c3         1 906      -0.094100
      3 CAE          8.7600     0.1220    -0.7680 ce         1 906       0.428800
      4 CAF         -9.8860    -0.3450    -0.4640 ca         1 906       0.402900
      5 CAG         -8.6560    -0.9900    -0.2550 ca         1 906      -0.283000
      6 CAH          6.5700     0.0200    -1.9830 ca         1 906      -0.042500
      7 CAI          6.5270     0.0880     0.4470 ca         1 906      -0.042500
      8 CAJ          5.1660    -0.0240    -2.0040 ca         1 906      -0.182500
      9 CAK          5.1220     0.0440     0.4240 ca         1 906      -0.182500
     10 CAL         -7.5830     1.1160    -0.5800 ca         1 906      -0.268000
     11 CAM         11.5410     0.2690     1.3830 c3         1 906       0.169600
     12 CAN          2.2200    -0.0480     0.2760 c3         1 906       0.165600
     13 CAO          0.7540    -0.1110    -0.2030 c3         1 906      -0.080400
     14 CAP         -1.7110    -0.4960     0.3340 c3         1 906      -0.106400
     15 CAQ         -2.8050    -0.8400     1.3690 c3         1 906       0.118000
     16 CAR         -4.4320    -2.5010     0.1750 c5         1 906       0.083000
     17 CAS         -5.9280    -2.3180    -0.2650 c5         1 906       0.087000
     18 NAT          9.4550     0.1750     0.3290 n2         1 906      -0.337700
     19 NAU         -9.9860     0.9740    -0.7300 nb         1 906      -0.759000
     20 OAV         10.8500     0.2120     0.1210 os         1 906      -0.321000
     21 OAW          3.0590    -0.0570    -0.8910 os         1 906      -0.349100
     22 CAX         -5.1220    -0.2620     0.6170 c          1 906       0.617000
     23 CAY         -8.8530     1.6520    -0.7760 ca         1 906       0.616900
     24 CAZ          7.2640     0.0760    -0.7580 ca         1 906      -0.180900
     25 CBA          4.4350    -0.0120    -0.8070 ca         1 906       0.162100
     26 CBB         -7.4540    -0.2680    -0.3670 ca         1 906       0.076000
     27 CBC         -0.2980    -0.2520     0.9340 c3         1 906      -0.050700
     28 NBD         -4.0910    -1.1800     0.7320 n          1 906      -0.415800
     29 NBE         -6.2050    -0.8850    -0.0020 n          1 906      -0.234400
     30 HAA         13.3040     1.1890     0.4890 hc         1 906       0.043367
     31 HAAA        13.6170     0.3520     2.0250 hc         1 906       0.043367
     32 HAAB        13.3590    -0.5910     0.5410 hc         1 906       0.043367
     33 HAB         -0.5400     1.8850     1.3760 hc         1 906       0.037700
     34 HABA        -0.9820     0.8210     2.7290 hc         1 906       0.037700
     35 HABB         0.7140     1.0910     2.3530 hc         1 906       0.037700
     36 HNAC        -8.3640     3.6000    -0.7160 hn         1 906       0.473500
     37 HNAA       -10.0400     3.2390    -0.8950 hn         1 906       0.473500
     38 HAE          9.2450     0.1080    -1.7470 h4         1 906       0.001800
     39 HAF        -10.8220    -0.9000    -0.3990 h4         1 906       0.012100
     40 HAG         -8.6580    -2.0470    -0.0100 ha         1 906       0.118000
     41 HAH          7.1190     0.0090    -2.9240 ha         1 906       0.121500
     42 HAI          7.0370     0.1310     1.4080 ha         1 906       0.121500
     43 HAJ          4.6400    -0.0670    -2.9540 ha         1 906       0.123500
     44 HAK          4.5870     0.0550     1.3690 ha         1 906       0.123500
     45 HAL         -6.7180     1.7660    -0.6310 ha         1 906       0.153000
     46 HAM         11.3100    -0.6120     1.9960 h1         1 906       0.036200
     47 HAMA        11.2560     1.1690     1.9440 h1         1 906       0.036200
     48 HAN          2.3860     0.8670     0.8590 h1         1 906       0.037200
     49 HANA         2.4350    -0.9170     0.9120 h1         1 906       0.037200
     50 HAO          0.5330     0.7860    -0.7940 hc         1 906       0.056200
     51 HAOA         0.6570    -0.9670    -0.8820 hc         1 906       0.056200
     52 HAP         -1.6520    -1.3230    -0.3840 hc         1 906       0.050700
     53 HAPA        -2.0250     0.3890    -0.2330 hc         1 906       0.050700
     54 HAQ         -2.4760    -1.7010     1.9660 h1         1 906       0.061200
     55 HAQA        -2.9500     0.0010     2.0590 h1         1 906       0.061200
     56 HAR         -4.3250    -3.2940     0.9270 h1         1 906       0.052700
     57 HARA        -3.7900    -2.7430    -0.6810 h1         1 906       0.052700
     58 HAS         -6.0700    -2.5630    -1.3260 h1         1 906       0.060200
     59 HASA        -6.5880    -2.9620     0.3300 h1         1 906       0.060200
     60 HBC         -0.0310    -1.1440     1.5160 hc         1 906       0.043700
     61 OAD         -5.0730     0.8930     1.0150 o          1 906      -0.554000
     62 NAC         -9.0780     2.9440    -1.0120 nv         1 906      -1.060900
@<TRIPOS>BOND
     1     1    11 1   
     2     1    30 1   
     3     1    31 1   
     4     1    32 1   
     5     2    27 1   
     6     2    33 1   
     7     2    34 1   
     8     2    35 1   
     9     3    18 2   
    10     3    24 1   
    11     3    38 1   
    12     4     5 ar  
    13     4    19 ar  
    14     4    39 1   
    15     5    26 ar  
    16     5    40 1   
    17     6     8 ar  
    18     6    24 ar  
    19     6    41 1   
    20     7     9 ar  
    21     7    24 ar  
    22     7    42 1   
    23     8    25 ar  
    24     8    43 1   
    25     9    25 ar  
    26     9    44 1   
    27    10    23 ar  
    28    10    26 ar  
    29    10    45 1   
    30    11    20 1   
    31    11    46 1   
    32    11    47 1   
    33    12    13 1   
    34    12    21 1   
    35    12    48 1   
    36    12    49 1   
    37    13    27 1   
    38    13    50 1   
    39    13    51 1   
    40    14    15 1   
    41    14    27 1   
    42    14    52 1   
    43    14    53 1   
    44    15    28 1   
    45    15    54 1   
    46    15    55 1   
    47    16    17 1   
    48    16    28 1   
    49    16    56 1   
    50    16    57 1   
    51    17    29 1   
    52    17    58 1   
    53    17    59 1   
    54    18    20 1   
    55    19    23 ar  
    56    21    25 1   
    57    22    28 1   
    58    22    29 1   
    59    22    61 2   
    60    23    62 1   
    61    26    29 1   
    62    27    60 1   
    63    36    62 1   
    64    37    62 1   
@<TRIPOS>SUBSTRUCTURE
     1 906         1 TEMP              0 ****  ****    0 ROOT
