@<TRIPOS>MOLECULE
907
   35    37     1     0     0
SMALL
abcg2


@<TRIPOS>ATOM
      1 C1          -4.8980    -0.2340    -0.0070 ca         1 907      -0.307900
      2 C2          -4.9010     1.1700     0.1190 ca         1 907      -0.107000
      3 C3          -3.7230     1.8860     0.0940 ca         1 907      -0.111000
      4 C4          -2.5360     1.1770    -0.0680 ca         1 907       0.021000
      5 C5          -2.5080    -0.2320    -0.2130 ca         1 907      -0.062000
      6 C6          -3.7070    -0.9360    -0.1740 ca         1 907      -0.030000
      7 C7          -6.1650    -0.9640     0.0430 ce         1 907       0.531400
      8 N1          -7.2560    -0.4110    -0.4380 nv         1 907      -0.592700
      9 N2          -6.2040    -2.1670     0.5700 nv         1 907      -0.576800
     10 N3          -1.2540     1.6090    -0.1290 na         1 907      -0.263900
     11 CN4         -1.1450    -0.6060    -0.3830 cc         1 907      -0.290000
     12 C8          -0.3890     0.5450    -0.3170 cc         1 907       0.138900
     13 C9           1.0480     0.7590    -0.3850 cd         1 907      -0.319200
     14 C10          1.5950     1.9710     0.0490 cd         1 907      -0.076000
     15 C11          2.9500     2.2560     0.0040 cc         1 907      -0.228200
     16 CV           3.4950     3.5820     0.4590 c3         1 907      -0.015900
     17 C12          3.7950     1.2620    -0.4980 cc         1 907      -0.068000
     18 C13          3.2810     0.0580    -0.9220 cd         1 907      -0.194500
     19 C14          1.8910    -0.2970    -0.8920 c          1 907       0.597500
     20 O6           1.4710    -1.4150    -1.2730 o          1 907      -0.668100
     21 BR5          4.4630    -1.2730    -1.5790 br         1 907      -0.134700
     22 HC2         -5.8300     1.7000     0.2780 ha         1 907       0.098000
     23 HC3         -3.7280     2.9620     0.2080 ha         1 907       0.124000
     24 HC6         -3.7070    -2.0120    -0.3040 ha         1 907       0.113000
     25 HH11        -7.2100     0.4460    -0.9650 hn         1 907       0.365000
     26 HH12        -8.1590    -0.8520    -0.3600 hn         1 907       0.365000
     27 HH21        -7.0450    -2.7230     0.5750 hn         1 907       0.365000
     28 HH22        -5.4130    -2.5340     1.0740 hn         1 907       0.365000
     29 HN3         -0.9850     2.5790    -0.1210 hn         1 907       0.356000
     30 HCN4        -0.7660    -1.6020    -0.5140 ha         1 907       0.245000
     31 H1           0.9440     2.7320     0.4700 ha         1 907       0.130000
     32 H32          3.6000     4.2890    -0.3670 hc         1 907       0.020367
     33 H33          2.8400     4.0470     1.1970 hc         1 907       0.020367
     34 H34          4.4810     3.4770     0.9150 hc         1 907       0.020367
     35 HC4          4.8630     1.4450    -0.5430 ha         1 907       0.170000
@<TRIPOS>BOND
     1     1     2 ar  
     2     1     6 ar  
     3     1     7 1   
     4     2     3 ar  
     5     2    22 1   
     6     3     4 ar  
     7     3    23 1   
     8     4     5 ar  
     9     4    10 2   
    10     5     6 ar  
    11     5    11 2   
    12     6    24 1   
    13     7     8 2   
    14     7     9 1   
    15     8    25 1   
    16     8    26 1   
    17     9    27 1   
    18     9    28 1   
    19    10    12 1   
    20    10    29 1   
    21    11    12 1   
    22    11    30 1   
    23    12    13 2   
    24    13    14 1   
    25    13    19 1   
    26    14    15 2   
    27    14    31 1   
    28    15    16 1   
    29    15    17 1   
    30    16    32 1   
    31    16    33 1   
    32    16    34 1   
    33    17    18 2   
    34    17    35 1   
    35    18    19 1   
    36    18    21 1   
    37    19    20 2   
@<TRIPOS>SUBSTRUCTURE
     1 907         1 TEMP              0 ****  ****    0 ROOT
