@<TRIPOS>MOLECULE
907
   35    37     1     0     0
SMALL
No Charge or Current Charge


@<TRIPOS>ATOM
      1 C1          -4.9390    -0.2530     0.0180 ca         1 907      -0.307900
      2 C2          -4.8950     1.1300     0.3620 ca         1 907      -0.107000
      3 C3          -3.6690     1.8290     0.4170 ca         1 907      -0.111000
      4 C4          -2.4950     1.1290     0.1230 ca         1 907       0.021000
      5 C5          -2.5300    -0.2120    -0.2120 ca         1 907      -0.062000
      6 C6          -3.7270    -0.9330    -0.2740 ca         1 907      -0.030000
      7 C7          -6.2380    -0.9780    -0.0370 ce         1 907       0.531400
      8 N1          -7.3710    -0.3050    -0.3970 nv         1 907      -0.592700
      9 N2          -6.2860    -2.3090     0.2700 nv         1 907      -0.576800
     10 N3          -1.1860     1.6050     0.1120 na         1 907      -0.263900
     11 CN4         -1.1720    -0.6220    -0.4540 cc         1 907      -0.290000
     12 C8          -0.3600     0.5370    -0.2430 cc         1 907       0.138900
     13 C9           1.0250     0.7400    -0.3320 cd         1 907      -0.319200
     14 C10          1.5400     2.0690    -0.0480 cd         1 907      -0.076000
     15 C11          2.9000     2.3110    -0.1250 cc         1 907      -0.228200
     16 CV           3.4980     3.6680     0.1580 c3         1 907      -0.015900
     17 C12          3.8120     1.2610    -0.4840 cc         1 907      -0.068000
     18 C13          3.3820    -0.0150    -0.7630 cd         1 907      -0.194500
     19 C14          1.9440    -0.3760    -0.7080 c          1 907       0.597500
     20 O6           1.5720    -1.5170    -0.9600 o          1 907      -0.668100
     21 Br5          4.6300    -1.3650    -1.2320 br         1 907      -0.134700
     22 HC2         -5.8090     1.6680     0.6010 ha         1 907       0.098000
     23 HC3         -3.6410     2.8830     0.6820 ha         1 907       0.124000
     24 HC6         -3.7120    -1.9850    -0.5540 ha         1 907       0.113000
     25 HH11        -7.2540     0.6120    -0.8060 hn         1 907       0.365000
     26 HH12        -8.1890    -0.8380    -0.6590 hn         1 907       0.365000
     27 HH21        -7.1890    -2.7270     0.4430 hn         1 907       0.365000
     28 HH22        -5.4840    -2.7120     0.7340 hn         1 907       0.365000
     29 HN3         -0.8940     2.5490     0.3210 hn         1 907       0.356000
     30 HCN4        -0.8230    -1.6090    -0.7400 ha         1 907       0.245000
     31 H1           0.9020     2.9020     0.2280 ha         1 907       0.130000
     32 H32          4.0320     4.0490    -0.7210 hc         1 907       0.020367
     33 H33          2.7290     4.4030     0.4250 hc         1 907       0.020367
     34 H34          4.2100     3.6140     0.9900 hc         1 907       0.020367
     35 HC4          4.8740     1.4920    -0.5330 ha         1 907       0.170000
@<TRIPOS>BOND
     1     1     2 ar  
     2     1     6 ar  
     3     1     7 1   
     4     2     3 ar  
     5     2    22 1   
     6     3     4 ar  
     7     3    23 1   
     8     4     5 ar  
     9     4    10 2   
    10     5     6 ar  
    11     5    11 2   
    12     6    24 1   
    13     7     8 2   
    14     7     9 1   
    15     8    25 1   
    16     8    26 1   
    17     9    27 1   
    18     9    28 1   
    19    10    12 1   
    20    10    29 1   
    21    11    12 1   
    22    11    30 1   
    23    12    13 2   
    24    13    14 1   
    25    13    19 1   
    26    14    15 2   
    27    14    31 1   
    28    15    16 1   
    29    15    17 1   
    30    16    32 1   
    31    16    33 1   
    32    16    34 1   
    33    17    18 2   
    34    17    35 1   
    35    18    19 1   
    36    18    21 1   
    37    19    20 2   
@<TRIPOS>SUBSTRUCTURE
     1 907         1 TEMP              0 ****  ****    0 ROOT
