@<TRIPOS>MOLECULE
908
   65    68     1     0     0
SMALL
abcg2


@<TRIPOS>ATOM
      1 O3          -6.3780     2.3260    -0.2960 o          1 908      -0.534000
      2 C20         -5.4610     1.5230    -0.3120 c          1 908       0.559000
      3 N3          -4.2170     1.8300     0.1560 n          1 908      -0.179800
      4 C17         -3.8680     3.1840     0.5950 c3         1 908       0.132700
      5 C19         -3.1490     3.1450     1.9350 c3         1 908      -0.101100
      6 C18         -3.0560     3.9050    -0.4720 c3         1 908      -0.101100
      7 N2          -3.1430     0.9950     0.0750 n2         1 908      -0.447300
      8 C21         -5.5740     0.1350    -0.9010 c6         1 908      -0.142700
      9 C26         -4.7150    -0.8310    -0.0910 c6         1 908      -0.128000
     10 C25         -5.2720    -1.0340     1.3260 c6         1 908      -0.037200
     11 C24         -6.7630    -1.1690     1.3330 c2         1 908      -0.225200
     12 C23         -7.5360    -0.8700     0.2930 c2         1 908      -0.209200
     13 C22         -7.0110    -0.3520    -1.0090 c6         1 908      -0.029200
     14 C16         -3.3280    -0.2630    -0.0330 ce         1 908       0.400900
     15 C4          -2.1400    -1.1290    -0.0570 ca         1 908      -0.159900
     16 C3          -2.2440    -2.5100     0.0710 ca         1 908      -0.050000
     17 C2          -1.1180    -3.3200     0.0910 ca         1 908      -0.210000
     18 C5          -0.8570    -0.5830    -0.1700 ca         1 908      -0.031000
     19 C6           0.2830    -1.3650    -0.1530 cp         1 908      -0.085000
     20 C1           0.1500    -2.7620    -0.0230 ca         1 908       0.168100
     21 O            1.2840    -3.4760    -0.0430 os         1 908      -0.332100
     22 C            1.2070    -4.8830     0.0900 c3         1 908       0.145900
     23 C7           1.6110    -0.7280    -0.2940 cp         1 908       0.001000
     24 C12          1.8570     0.1340    -1.3620 ca         1 908      -0.104000
     25 C11          3.0780     0.7750    -1.4910 ca         1 908      -0.073000
     26 C10          4.0910     0.5620    -0.5610 ca         1 908      -0.148600
     27 C9           3.8440    -0.2890     0.5150 ca         1 908      -0.073000
     28 C8           2.6220    -0.9260     0.6460 ca         1 908      -0.104000
     29 C13          5.3850     1.2850    -0.7460 c          1 908       0.616700
     30 O1           5.4550     2.3050    -1.4210 o          1 908      -0.613100
     31 N            6.4540     0.7540    -0.1370 ns         1 908      -0.496900
     32 C14          7.7500     1.3680    -0.1940 c3         1 908       0.017000
     33 C15          8.7100     0.6080     0.7080 c          1 908       0.594100
     34 O2           8.3760    -0.4180     1.2820 o          1 908      -0.612100
     35 N1           9.9250     1.1550     0.8020 nt         1 908      -0.603000
     36 H1          -4.8150     3.7040     0.7260 h1         1 908       0.078700
     37 H2          -3.7280     2.5980     2.6800 hc         1 908       0.043033
     38 H3          -2.1690     2.6770     1.8490 hc         1 908       0.043033
     39 H4          -3.0050     4.1620     2.3020 hc         1 908       0.043033
     40 H5          -2.1180     3.3850    -0.6690 hc         1 908       0.043033
     41 H6          -3.6110     3.9810    -1.4070 hc         1 908       0.043033
     42 H7          -2.8170     4.9160    -0.1400 hc         1 908       0.043033
     43 H8          -5.1490     0.2090    -1.9110 hc         1 908       0.077700
     44 H9          -4.7150    -1.7900    -0.6120 hc         1 908       0.071700
     45 H10         -4.8190    -1.9270     1.7680 hc         1 908       0.056700
     46 H11         -4.9780    -0.2100     1.9860 hc         1 908       0.056700
     47 H12         -7.2150    -1.5280     2.2510 ha         1 908       0.176000
     48 H14         -8.6090    -1.0090     0.3700 ha         1 908       0.177000
     49 H16         -7.6520     0.4490    -1.3810 hc         1 908       0.063200
     50 H17         -7.0630    -1.1430    -1.7640 hc         1 908       0.063200
     51 H18         -3.2100    -2.9880     0.1690 ha         1 908       0.114000
     52 H19         -1.2520    -4.3880     0.1880 ha         1 908       0.120000
     53 H20         -0.7510     0.4910    -0.2620 ha         1 908       0.139000
     54 H21          2.2300    -5.2500     0.0570 h1         1 908       0.044033
     55 H22          0.7560    -5.1770     1.0400 h1         1 908       0.044033
     56 H23          0.6420    -5.3380    -0.7270 h1         1 908       0.044033
     57 H24          1.0900     0.2970    -2.1080 ha         1 908       0.121000
     58 H25          3.2470     1.4400    -2.3280 ha         1 908       0.126000
     59 H26          4.5870    -0.4470     1.2860 ha         1 908       0.126000
     60 H27          2.4490    -1.5640     1.5020 ha         1 908       0.121000
     61 H28          6.4020    -0.1350     0.3370 hn         1 908       0.345500
     62 H29          8.1510     1.3730    -1.2130 h1         1 908       0.066700
     63 H30          7.7020     2.4120     0.1280 h1         1 908       0.066700
     64 H31         10.1700     1.9990     0.3140 hn         1 908       0.319500
     65 H32         10.6380     0.7210     1.3660 hn         1 908       0.319500
@<TRIPOS>BOND
     1     1     2 2   
     2     2     3 1   
     3     2     8 1   
     4     3     4 1   
     5     3     7 1   
     6     4     5 1   
     7     4     6 1   
     8     4    36 1   
     9     5    37 1   
    10     5    38 1   
    11     5    39 1   
    12     6    40 1   
    13     6    41 1   
    14     6    42 1   
    15     7    14 2   
    16     8     9 1   
    17     8    13 1   
    18     8    43 1   
    19     9    10 1   
    20     9    14 1   
    21     9    44 1   
    22    10    11 1   
    23    10    45 1   
    24    10    46 1   
    25    11    12 2   
    26    11    47 1   
    27    12    13 1   
    28    12    48 1   
    29    13    49 1   
    30    13    50 1   
    31    14    15 1   
    32    15    16 ar  
    33    15    18 ar  
    34    16    17 ar  
    35    16    51 1   
    36    17    20 ar  
    37    17    52 1   
    38    18    19 ar  
    39    18    53 1   
    40    19    20 ar  
    41    19    23 1   
    42    20    21 1   
    43    21    22 1   
    44    22    54 1   
    45    22    55 1   
    46    22    56 1   
    47    23    24 ar  
    48    23    28 ar  
    49    24    25 ar  
    50    24    57 1   
    51    25    26 ar  
    52    25    58 1   
    53    26    27 ar  
    54    26    29 1   
    55    27    28 ar  
    56    27    59 1   
    57    28    60 1   
    58    29    30 2   
    59    29    31 1   
    60    31    32 1   
    61    31    61 1   
    62    32    33 1   
    63    32    62 1   
    64    32    63 1   
    65    33    34 2   
    66    33    35 1   
    67    35    64 1   
    68    35    65 1   
@<TRIPOS>SUBSTRUCTURE
     1 908         1 TEMP              0 ****  ****    0 ROOT
