@<TRIPOS>MOLECULE
908
   65    68     1     0     0
SMALL
No Charge or Current Charge


@<TRIPOS>ATOM
      1 O3          -6.4030     2.4520    -0.5160 o          1 908      -0.534000
      2 C20         -5.5170     1.6100    -0.4120 c          1 908       0.559000
      3 N3          -4.2260     1.9260     0.1170 n          1 908      -0.179800
      4 C17         -4.0060     3.2620     0.7330 c3         1 908       0.132700
      5 C19         -3.0760     3.1940     1.9670 c3         1 908      -0.101100
      6 C18         -3.4660     4.2720    -0.3030 c3         1 908      -0.101100
      7 N2          -3.1640     1.0440    -0.0770 n2         1 908      -0.447300
      8 C21         -5.7020     0.1730    -0.9600 c6         1 908      -0.142700
      9 C26         -4.7660    -0.8160    -0.1910 c6         1 908      -0.128000
     10 C25         -5.2760    -1.0660     1.2640 c6         1 908      -0.037200
     11 C24         -6.7870    -1.1980     1.3690 c2         1 908      -0.225200
     12 C23         -7.6300    -0.8760     0.3760 c2         1 908      -0.209200
     13 C22         -7.1680    -0.3530    -0.9730 c6         1 908      -0.029200
     14 C16         -3.3360    -0.2450    -0.1350 ce         1 908       0.400900
     15 C4          -2.1380    -1.1620    -0.1150 ca         1 908      -0.159900
     16 C3          -2.2660    -2.5510     0.1140 ca         1 908      -0.050000
     17 C2          -1.1340    -3.3800     0.1500 ca         1 908      -0.210000
     18 C5          -0.8370    -0.6300    -0.2790 ca         1 908      -0.031000
     19 C6           0.3220    -1.4430    -0.2390 cp         1 908      -0.085000
     20 C1           0.1540    -2.8370    -0.0280 ca         1 908       0.168100
     21 O            1.2890    -3.6270    -0.0320 os         1 908      -0.332100
     22 C            1.2390    -5.0510     0.1580 c3         1 908       0.145900
     23 C7           1.6680    -0.8140    -0.4230 cp         1 908       0.001000
     24 C12          1.9000     0.0960    -1.4800 ca         1 908      -0.104000
     25 C11          3.1540     0.7050    -1.6540 ca         1 908      -0.073000
     26 C10          4.2230     0.4310    -0.7710 ca         1 908      -0.148600
     27 C9           3.9950    -0.4720     0.2960 ca         1 908      -0.073000
     28 C8           2.7380    -1.0790     0.4640 ca         1 908      -0.104000
     29 C13          5.5620     1.1070    -0.9900 c          1 908       0.616700
     30 O1           5.7570     1.8910    -1.9100 o          1 908      -0.613100
     31 N            6.5680     0.8000    -0.1020 ns         1 908      -0.496900
     32 C14          7.9380     1.3580    -0.1530 c3         1 908       0.017000
     33 C15          8.8290     0.8120     0.9880 c          1 908       0.594100
     34 O2           8.4420     0.0160     1.8300 o          1 908      -0.612100
     35 N1          10.1000     1.2680     1.0200 nt         1 908      -0.603000
     36 H1          -4.9720     3.6390     1.0930 h1         1 908       0.078700
     37 H2          -3.4640     2.4760     2.6990 hc         1 908       0.043033
     38 H3          -2.0620     2.8860     1.6850 hc         1 908       0.043033
     39 H4          -3.0120     4.1740     2.4540 hc         1 908       0.043033
     40 H5          -2.4890     3.9530    -0.6860 hc         1 908       0.043033
     41 H6          -4.1560     4.3580    -1.1510 hc         1 908       0.043033
     42 H7          -3.3540     5.2650     0.1460 hc         1 908       0.043033
     43 H8          -5.3310     0.2220    -1.9930 hc         1 908       0.077700
     44 H9          -4.7700    -1.7670    -0.7390 hc         1 908       0.071700
     45 H10         -4.8030    -1.9680     1.6740 hc         1 908       0.056700
     46 H11         -4.9600    -0.2420     1.9210 hc         1 908       0.056700
     47 H12         -7.1710    -1.5740     2.3200 ha         1 908       0.176000
     48 H14         -8.7090    -0.9890     0.5060 ha         1 908       0.177000
     49 H16         -7.8520     0.4310    -1.3250 hc         1 908       0.063200
     50 H17         -7.2530    -1.1690    -1.7050 hc         1 908       0.063200
     51 H18         -3.2380    -3.0110     0.2670 ha         1 908       0.114000
     52 H19         -1.2790    -4.4430     0.3170 ha         1 908       0.120000
     53 H20         -0.7070     0.4380    -0.4360 ha         1 908       0.139000
     54 H21          2.2500    -5.4750     0.1190 h1         1 908       0.044033
     55 H22          0.8050    -5.2990     1.1350 h1         1 908       0.044033
     56 H23          0.6400    -5.5290    -0.6270 h1         1 908       0.044033
     57 H24          1.0990     0.3240    -2.1790 ha         1 908       0.121000
     58 H25          3.2920     1.3950    -2.4840 ha         1 908       0.126000
     59 H26          4.7780    -0.7160     1.0090 ha         1 908       0.126000
     60 H27          2.5860    -1.7580     1.2990 ha         1 908       0.121000
     61 H28          6.3480     0.1440     0.6380 hn         1 908       0.345500
     62 H29          8.4060     1.0990    -1.1120 h1         1 908       0.066700
     63 H30          7.8950     2.4510    -0.0660 h1         1 908       0.066700
     64 H31         10.4220     1.9270     0.3250 hn         1 908       0.319500
     65 H32         10.7220     0.9430     1.7450 hn         1 908       0.319500
@<TRIPOS>BOND
     1     1     2 2   
     2     2     3 1   
     3     2     8 1   
     4     3     4 1   
     5     3     7 1   
     6     4     5 1   
     7     4     6 1   
     8     4    36 1   
     9     5    37 1   
    10     5    38 1   
    11     5    39 1   
    12     6    40 1   
    13     6    41 1   
    14     6    42 1   
    15     7    14 2   
    16     8     9 1   
    17     8    13 1   
    18     8    43 1   
    19     9    10 1   
    20     9    14 1   
    21     9    44 1   
    22    10    11 1   
    23    10    45 1   
    24    10    46 1   
    25    11    12 2   
    26    11    47 1   
    27    12    13 1   
    28    12    48 1   
    29    13    49 1   
    30    13    50 1   
    31    14    15 1   
    32    15    16 ar  
    33    15    18 ar  
    34    16    17 ar  
    35    16    51 1   
    36    17    20 ar  
    37    17    52 1   
    38    18    19 ar  
    39    18    53 1   
    40    19    20 ar  
    41    19    23 1   
    42    20    21 1   
    43    21    22 1   
    44    22    54 1   
    45    22    55 1   
    46    22    56 1   
    47    23    24 ar  
    48    23    28 ar  
    49    24    25 ar  
    50    24    57 1   
    51    25    26 ar  
    52    25    58 1   
    53    26    27 ar  
    54    26    29 1   
    55    27    28 ar  
    56    27    59 1   
    57    28    60 1   
    58    29    30 2   
    59    29    31 1   
    60    31    32 1   
    61    31    61 1   
    62    32    33 1   
    63    32    62 1   
    64    32    63 1   
    65    33    34 2   
    66    33    35 1   
    67    35    64 1   
    68    35    65 1   
@<TRIPOS>SUBSTRUCTURE
     1 908         1 TEMP              0 ****  ****    0 ROOT
