@<TRIPOS>MOLECULE
909
   65    69     1     0     0
SMALL
abcg2


@<TRIPOS>ATOM
      1 C1           4.6950     8.4160     0.6200 ca         1 909      -0.017000
      2 C11          1.2350     6.3240    -3.2840 c6         1 909       0.127300
      3 C12          1.6960     7.7750    -3.2200 c6         1 909       0.194300
      4 C15          7.5630     6.9130    -0.7200 cc         1 909       0.477400
      5 C17          8.9390     6.4750    -0.8100 cc         1 909      -0.207900
      6 C18         10.0670     6.9780    -0.2060 cd         1 909       0.005000
      7 C19         11.1680     6.1740    -0.6450 cd         1 909      -0.249600
      8 C2           5.7310     7.7760    -0.0600 ca         1 909       0.035400
      9 C20         10.6490     5.2010    -1.5010 cc         1 909      -0.069300
     10 C22         11.2940     4.0920    -2.2510 c3         1 909      -0.033800
     11 C23         12.5970     6.3050    -0.3610 c          1 909       0.614700
     12 C24         13.0930     7.4870     0.4300 c3         1 909      -0.190100
     13 C25         10.0880     8.1370     0.7030 ca         1 909      -0.037000
     14 C26          9.9890     9.4370     0.2150 ca         1 909      -0.060500
     15 C27         10.0230    10.5210     1.0720 ca         1 909      -0.152500
     16 C28         10.1550    10.3430     2.4520 ca         1 909      -0.017000
     17 C29         10.2450     9.0420     2.9510 ca         1 909      -0.152500
     18 C3           5.4770     7.2730    -1.3410 ca         1 909      -0.042200
     19 C30         10.2090     7.9660     2.0770 ca         1 909      -0.060500
     20 C34         10.3180    13.0400     5.0880 c3         1 909      -0.182100
     21 C4           4.2390     7.3540    -1.9700 ca         1 909      -0.199000
     22 C5           3.2070     8.0020    -1.2900 ca         1 909       0.323000
     23 C6           3.4680     8.5280     0.0040 ca         1 909      -0.173000
     24 C8           0.7590     8.0090    -1.0540 c6         1 909       0.194300
     25 C9           0.2970     6.5590    -1.0990 c6         1 909       0.127300
     26 N10          0.0500     6.1430    -2.4660 n3         1 909      -0.712600
     27 N14          6.6650     6.7240    -1.7370 na         1 909      -0.328600
     28 N16          7.0330     7.5320     0.3010 nd         1 909      -0.533100
     29 N21          9.3260     5.4100    -1.5870 na         1 909      -0.104000
     30 N31         10.1840    11.4980     3.2390 ns         1 909      -0.148000
     31 N7           1.9530     8.2120    -1.8610 nh         1 909      -0.784400
     32 O33         10.5510    10.6760     5.3280 o          1 909      -0.582100
     33 O35         13.3900     5.4710    -0.7680 o          1 909      -0.560100
     34 H1           4.8510     8.8360     1.6060 ha         1 909       0.130000
     35 H2           0.9960     6.0670    -4.3200 h1         1 909       0.039200
     36 H3           2.0530     5.6540    -2.9660 h1         1 909       0.039200
     37 H4           2.5710     7.9350    -3.8480 h1         1 909       0.061950
     38 H5           0.9020     8.4100    -3.6250 h1         1 909       0.061950
     39 H6          -1.3510     4.6860    -1.9450 h1         1 909       0.032033
     40 H7          -0.6650     4.5150    -3.5610 h1         1 909       0.032033
     41 H8           0.2890     4.0470    -2.1450 h1         1 909       0.032033
     42 H9          12.0750     4.4640    -2.9130 hc         1 909       0.058367
     43 H10         11.7600     3.3740    -1.5770 hc         1 909       0.058367
     44 H11         10.5610     3.5610    -2.8580 hc         1 909       0.058367
     45 H12         14.1800     7.5250     0.3900 hc         1 909       0.062033
     46 H13         12.6860     8.4280     0.0610 hc         1 909       0.062033
     47 H14         12.7890     7.4030     1.4750 hc         1 909       0.062033
     48 H15          9.8910     9.6050    -0.8500 ha         1 909       0.116000
     49 H16          9.9510    11.5220     0.6630 ha         1 909       0.127000
     50 H17         10.3410     8.8590     4.0080 ha         1 909       0.127000
     51 H18         10.2800     6.9640     2.4830 ha         1 909       0.116000
     52 H19         11.1020    13.1920     5.8280 hc         1 909       0.062700
     53 H20         10.4240    13.7910     4.3070 hc         1 909       0.062700
     54 H21          9.3610    13.2030     5.5860 hc         1 909       0.062700
     55 H22          4.1040     6.9160    -2.9480 ha         1 909       0.115000
     56 H23          2.6870     9.0650     0.5250 ha         1 909       0.117000
     57 H24          0.9240     8.3080    -0.0220 h1         1 909       0.061950
     58 H25         -0.0340     8.6520    -1.4480 h1         1 909       0.061950
     59 H26         -0.6270     6.4600    -0.5240 h1         1 909       0.039200
     60 H27          1.0540     5.9220    -0.6060 h1         1 909       0.039200
     61 H29          6.8570     6.3380    -2.6480 hn         1 909       0.348000
     62 H31          8.7020     4.8090    -2.1060 hn         1 909       0.344000
     63 H32         10.0600    12.3590     2.7290 hn         1 909       0.148000
     64 C13         -0.4340     4.7830    -2.5290 c3         1 909       0.151100
     65 C32         10.3740    11.6210     4.5800 c          1 909       0.608100
@<TRIPOS>BOND
     1     1     8 ar  
     2     1    23 ar  
     3     1    34 1   
     4     2     3 1   
     5     2    26 1   
     6     2    35 1   
     7     2    36 1   
     8     3    31 1   
     9     3    37 1   
    10     3    38 1   
    11     4     5 1   
    12     4    27 1   
    13     4    28 2   
    14     5     6 2   
    15     5    29 1   
    16     6     7 1   
    17     6    13 1   
    18     7     9 2   
    19     7    11 1   
    20     8    18 ar  
    21     8    28 1   
    22     9    10 1   
    23     9    29 1   
    24    10    42 1   
    25    10    43 1   
    26    10    44 1   
    27    11    12 1   
    28    11    33 2   
    29    12    45 1   
    30    12    46 1   
    31    12    47 1   
    32    13    14 ar  
    33    13    19 ar  
    34    14    15 ar  
    35    14    48 1   
    36    15    16 ar  
    37    15    49 1   
    38    16    17 ar  
    39    16    30 1   
    40    17    19 ar  
    41    17    50 1   
    42    18    21 ar  
    43    18    27 1   
    44    19    51 1   
    45    20    52 1   
    46    20    53 1   
    47    20    54 1   
    48    20    65 1   
    49    21    22 ar  
    50    21    55 1   
    51    22    23 ar  
    52    22    31 1   
    53    23    56 1   
    54    24    25 1   
    55    24    31 1   
    56    24    57 1   
    57    24    58 1   
    58    25    26 1   
    59    25    59 1   
    60    25    60 1   
    61    26    64 1   
    62    27    61 1   
    63    29    62 1   
    64    30    63 1   
    65    30    65 1   
    66    32    65 2   
    67    39    64 1   
    68    40    64 1   
    69    41    64 1   
@<TRIPOS>SUBSTRUCTURE
     1 909         1 TEMP              0 ****  ****    0 ROOT
