@<TRIPOS>MOLECULE
909
   65    69     1     0     0
SMALL
No Charge or Current Charge


@<TRIPOS>ATOM
      1 C1           4.8030     9.0230     0.1980 ca         1 909      -0.017000
      2 C11          0.9240     6.1780    -3.4190 c6         1 909       0.127300
      3 C12          1.5590     7.6010    -3.2930 c6         1 909       0.194300
      4 C15          7.6360     7.1630    -0.8150 cc         1 909       0.477400
      5 C17          8.9850     6.6410    -0.8890 cc         1 909      -0.207900
      6 C18         10.0880     7.0020    -0.1440 cd         1 909       0.005000
      7 C19         11.1850     6.1790    -0.5790 cd         1 909      -0.249600
      8 C2           5.7920     8.1920    -0.3450 ca         1 909       0.035400
      9 C20         10.6990     5.2610    -1.4960 cc         1 909      -0.069300
     10 C22         11.3900     4.1620    -2.2660 c3         1 909      -0.033800
     11 C23         12.6510     6.2490    -0.2220 c          1 909       0.614700
     12 C24         13.2210     7.4190     0.5810 c3         1 909      -0.190100
     13 C25         10.1500     8.1430     0.7860 ca         1 909      -0.037000
     14 C26          9.8040     9.4400     0.3630 ca         1 909      -0.060500
     15 C27          9.8710    10.5230     1.2560 ca         1 909      -0.152500
     16 C28         10.2770    10.3320     2.5900 ca         1 909      -0.017000
     17 C29         10.6100     9.0290     3.0180 ca         1 909      -0.152500
     18 C3           5.4900     7.3240    -1.3500 ca         1 909      -0.042200
     19 C30         10.5440     7.9470     2.1220 ca         1 909      -0.060500
     20 C34         10.5670    13.0850     5.2590 c3         1 909      -0.182100
     21 C4           4.2080     7.2040    -1.8960 ca         1 909      -0.199000
     22 C5           3.1860     8.0290    -1.3730 ca         1 909       0.323000
     23 C6           3.4930     8.9320    -0.3260 ca         1 909      -0.173000
     24 C8           0.7070     7.7390    -0.9480 c6         1 909       0.194300
     25 C9           0.0810     6.3150    -1.1220 c6         1 909       0.127300
     26 N10         -0.2740     6.0020    -2.5410 n3         1 909      -0.712600
     27 N14          6.6370     6.6640    -1.6550 na         1 909      -0.328600
     28 N16          7.1330     8.1050     0.0090 nd         1 909      -0.533100
     29 N21          9.3590     5.5680    -1.6930 na         1 909      -0.104000
     30 N31         10.3180    11.4760     3.4350 ns         1 909      -0.148000
     31 N7           1.8650     7.9600    -1.8710 nh         1 909      -0.784400
     32 O33         11.1230    10.7590     5.4880 o          1 909      -0.582100
     33 O35         13.4430     5.3940    -0.6000 o          1 909      -0.560100
     34 H1           5.0400     9.7180     0.9990 ha         1 909       0.130000
     35 H2           0.6520     6.0100    -4.4710 h1         1 909       0.039200
     36 H3           1.6900     5.4310    -3.1640 h1         1 909       0.039200
     37 H4           2.4620     7.6530    -3.9200 h1         1 909       0.061950
     38 H5           0.8560     8.3360    -3.7110 h1         1 909       0.061950
     39 H6          -1.8040     4.5960    -2.0700 h1         1 909       0.032033
     40 H7          -1.1930     4.4960    -3.7350 h1         1 909       0.032033
     41 H8          -0.2080     3.8740    -2.3890 h1         1 909       0.032033
     42 H9          12.1890     4.5680    -2.8990 hc         1 909       0.058367
     43 H10         11.8320     3.4240    -1.5870 hc         1 909       0.058367
     44 H11         10.6900     3.6290    -2.9200 hc         1 909       0.058367
     45 H12         14.3060     7.5060     0.4550 hc         1 909       0.062033
     46 H13         12.7100     8.3510     0.3260 hc         1 909       0.062033
     47 H14         13.0040     7.2520     1.6390 hc         1 909       0.062033
     48 H15          9.4960     9.6100    -0.6660 ha         1 909       0.116000
     49 H16          9.6050    11.5180     0.9050 ha         1 909       0.127000
     50 H17         10.9160     8.8290     4.0400 ha         1 909       0.127000
     51 H18         10.7870     6.9460     2.4710 ha         1 909       0.116000
     52 H19         10.8780    13.2010     6.3040 hc         1 909       0.062700
     53 H20         11.1290    13.7510     4.5940 hc         1 909       0.062700
     54 H21          9.5350    13.4210     5.1040 hc         1 909       0.062700
     55 H22          4.0110     6.4870    -2.6860 ha         1 909       0.115000
     56 H23          2.7160     9.5740     0.0770 ha         1 909       0.117000
     57 H24          1.0110     7.8600     0.1020 h1         1 909       0.061950
     58 H25         -0.0690     8.4950    -1.1390 h1         1 909       0.061950
     59 H26         -0.8110     6.2470    -0.4820 h1         1 909       0.039200
     60 H27          0.8010     5.5740    -0.7430 h1         1 909       0.039200
     61 H29          6.7510     5.9580    -2.3650 hn         1 909       0.348000
     62 H31          8.7510     5.0650    -2.3310 hn         1 909       0.344000
     63 H32         10.0050    12.3250     2.9850 hn         1 909       0.148000
     64 C13         -0.9010     4.6710    -2.6910 c3         1 909       0.151100
     65 C32         10.7040    11.6500     4.7590 c          1 909       0.608100
@<TRIPOS>BOND
     1     1     8 ar  
     2     1    23 ar  
     3     1    34 1   
     4     2     3 1   
     5     2    26 1   
     6     2    35 1   
     7     2    36 1   
     8     3    31 1   
     9     3    37 1   
    10     3    38 1   
    11     4     5 1   
    12     4    27 1   
    13     4    28 2   
    14     5     6 2   
    15     5    29 1   
    16     6     7 1   
    17     6    13 1   
    18     7     9 2   
    19     7    11 1   
    20     8    18 ar  
    21     8    28 1   
    22     9    10 1   
    23     9    29 1   
    24    10    42 1   
    25    10    43 1   
    26    10    44 1   
    27    11    12 1   
    28    11    33 2   
    29    12    45 1   
    30    12    46 1   
    31    12    47 1   
    32    13    14 ar  
    33    13    19 ar  
    34    14    15 ar  
    35    14    48 1   
    36    15    16 ar  
    37    15    49 1   
    38    16    17 ar  
    39    16    30 1   
    40    17    19 ar  
    41    17    50 1   
    42    18    21 ar  
    43    18    27 1   
    44    19    51 1   
    45    20    52 1   
    46    20    53 1   
    47    20    54 1   
    48    20    65 1   
    49    21    22 ar  
    50    21    55 1   
    51    22    23 ar  
    52    22    31 1   
    53    23    56 1   
    54    24    25 1   
    55    24    31 1   
    56    24    57 1   
    57    24    58 1   
    58    25    26 1   
    59    25    59 1   
    60    25    60 1   
    61    26    64 1   
    62    27    61 1   
    63    29    62 1   
    64    30    63 1   
    65    30    65 1   
    66    32    65 2   
    67    39    64 1   
    68    40    64 1   
    69    41    64 1   
@<TRIPOS>SUBSTRUCTURE
     1 909         1 TEMP              0 ****  ****    0 ROOT
