@<TRIPOS>MOLECULE
90A
   45    44     1     0     0
SMALL
No Charge or Current Charge


@<TRIPOS>ATOM
      1 C1          -5.5260     0.7650    -1.4220 c3         1 90A       0.102000
      2 C2          -4.4580     1.6000    -0.6770 c3         1 90A       0.141600
      3 C3          -7.4570     0.6660     0.1960 c          1 90A       0.598100
      4 C4          -2.6300     1.3630     0.8960 c3         1 90A       0.160600
      5 C5          -1.8560     0.2990     1.7110 c3         1 90A       0.163600
      6 O4          -7.7150     1.8560     0.0920 o          1 90A      -0.620100
      7 C6          -8.2320    -0.2650     1.1200 c3         1 90A      -0.179100
      8 N1          -6.4490     0.0620    -0.5180 ns         1 90A      -0.501900
      9 O3          -3.6660     0.7120     0.1330 os         1 90A      -0.458000
     10 O6          -1.0430    -0.4820     0.8130 os         1 90A      -0.429000
     11 C7          -0.2770    -1.5210     1.4540 c3         1 90A       0.160600
     12 C8           0.5530    -2.2700     0.3840 c3         1 90A       0.164600
     13 O9           1.6230    -1.4160    -0.0650 os         1 90A      -0.425000
     14 C10          2.4670    -2.0000    -1.0760 c3         1 90A       0.159600
     15 C11          3.5770    -0.9890    -1.4590 c3         1 90A       0.170600
     16 O12          4.5300    -0.8980    -0.3790 os         1 90A      -0.470000
     17 C13          5.6100     0.0180    -0.6190 c3         1 90A       0.171600
     18 C14          6.5230    -0.0100     0.6160 c3         1 90A      -0.211400
     19 C15          7.6830     0.9590     0.3800 c          1 90A       0.720000
     20 O16          8.6860     0.5330    -0.1730 o          1 90A      -0.741000
     21 H1          -6.1060     1.4270    -2.0780 h1         1 90A       0.061700
     22 H2          -5.0230     0.0250    -2.0580 h1         1 90A       0.061700
     23 H3          -3.8290     2.1170    -1.4140 h1         1 90A       0.031200
     24 H4          -4.9520     2.3590    -0.0560 h1         1 90A       0.031200
     25 H5          -3.0700     2.0890     1.5920 h1         1 90A       0.033700
     26 H6          -1.9330     1.9000     0.2390 h1         1 90A       0.033700
     27 H7          -1.2220     0.8100     2.4480 h1         1 90A       0.024200
     28 H8          -2.5670    -0.3370     2.2540 h1         1 90A       0.024200
     29 H9          -7.5290    -0.7590     1.8000 hc         1 90A       0.056700
     30 H10         -9.0300     0.2500     1.6660 hc         1 90A       0.056700
     31 H11         -8.6210    -1.1070     0.5350 hc         1 90A       0.056700
     32 H12         -6.3000    -0.9260    -0.3500 hn         1 90A       0.324500
     33 H13          0.3950    -1.1040     2.2150 h1         1 90A       0.025200
     34 H14         -0.9480    -2.2370     1.9470 h1         1 90A       0.025200
     35 H15          0.9620    -3.1860     0.8300 h1         1 90A       0.020700
     36 H16         -0.0980    -2.5590    -0.4520 h1         1 90A       0.020700
     37 H17          2.9240    -2.9320    -0.7180 h1         1 90A       0.015200
     38 H18          1.8760    -2.2320    -1.9720 h1         1 90A       0.015200
     39 H19          4.0740    -1.3400    -2.3730 h1         1 90A       0.019200
     40 H20          3.1260    -0.0110    -1.6700 h1         1 90A       0.019200
     41 H21          6.1810    -0.2800    -1.5090 h1         1 90A       0.023700
     42 H22          5.2280     1.0360    -0.7740 h1         1 90A       0.023700
     43 H23          5.9060     0.3210     1.4600 hc         1 90A       0.029200
     44 H24          6.8880    -1.0400     0.7020 hc         1 90A       0.029200
     45 O1           7.5380     2.1250     0.7120 o          1 90A      -0.741000
@<TRIPOS>BOND
     1     1     2 1   
     2     1     8 1   
     3     1    21 1   
     4     1    22 1   
     5     2     9 1   
     6     2    23 1   
     7     2    24 1   
     8     3     6 2   
     9     3     7 1   
    10     3     8 1   
    11     4     5 1   
    12     4     9 1   
    13     4    25 1   
    14     4    26 1   
    15     5    10 1   
    16     5    27 1   
    17     5    28 1   
    18     7    29 1   
    19     7    30 1   
    20     7    31 1   
    21     8    32 1   
    22    10    11 1   
    23    11    12 1   
    24    11    33 1   
    25    11    34 1   
    26    12    13 1   
    27    12    35 1   
    28    12    36 1   
    29    13    14 1   
    30    14    15 1   
    31    14    37 1   
    32    14    38 1   
    33    15    16 1   
    34    15    39 1   
    35    15    40 1   
    36    16    17 1   
    37    17    18 1   
    38    17    41 1   
    39    17    42 1   
    40    18    19 1   
    41    18    43 1   
    42    18    44 1   
    43    19    20 1   
    44    19    45 1   
@<TRIPOS>SUBSTRUCTURE
     1 90A         1 TEMP              0 ****  ****    0 ROOT
