@<TRIPOS>MOLECULE
90A
   45    44     1     0     0
SMALL
abcg2


@<TRIPOS>ATOM
      1 C1          -5.0290     1.2990    -1.1220 c3         1 90A       0.102000
      2 C2          -3.9940     1.9120    -0.2070 c3         1 90A       0.141600
      3 C3          -7.2470     0.3010    -0.7580 c          1 90A       0.598100
      4 C4          -2.3750     1.3560     1.3960 c3         1 90A       0.160600
      5 C5          -1.7190     0.1980     2.1000 c3         1 90A       0.163600
      6 O4          -7.7240     0.7940    -1.7730 o          1 90A      -0.620100
      7 C6          -8.0570    -0.5990     0.1430 c3         1 90A      -0.179100
      8 N1          -5.9810     0.5160    -0.3670 ns         1 90A      -0.501900
      9 O3          -3.3100     0.8790     0.4590 os         1 90A      -0.458000
     10 O6          -0.9680    -0.5550     1.1830 os         1 90A      -0.429000
     11 C7          -0.2810    -1.6200     1.7900 c3         1 90A       0.160600
     12 C8           0.4800    -2.3990     0.7490 c3         1 90A       0.164600
     13 O9           1.4750    -1.5860     0.1810 os         1 90A      -0.425000
     14 C10          2.2370    -2.2550    -0.7900 c3         1 90A       0.159600
     15 C11          3.2470    -1.3090    -1.3870 c3         1 90A       0.170600
     16 O12          4.1790    -0.9240    -0.4120 os         1 90A      -0.470000
     17 C13          5.1560    -0.0340    -0.9130 c3         1 90A       0.171600
     18 C14          6.1110     0.3350     0.2010 c3         1 90A      -0.211400
     19 C15          7.2400     1.2900    -0.2240 c          1 90A       0.720000
     20 O16          7.2870     1.6260    -1.4240 o          1 90A      -0.741000
     21 H1          -5.5530     2.1010    -1.6400 h1         1 90A       0.061700
     22 H2          -4.5370     0.6870    -1.8850 h1         1 90A       0.061700
     23 H3          -3.3040     2.5230    -0.8040 h1         1 90A       0.031200
     24 H4          -4.4840     2.5830     0.5130 h1         1 90A       0.031200
     25 H5          -2.8640     1.9850     2.1520 h1         1 90A       0.033700
     26 H6          -1.6140     1.9790     0.9050 h1         1 90A       0.033700
     27 H7          -1.0810     0.6050     2.8970 h1         1 90A       0.024200
     28 H8          -2.4820    -0.4240     2.5910 h1         1 90A       0.024200
     29 H9          -7.5380    -0.8820     1.0560 hc         1 90A       0.056700
     30 H10         -8.9880    -0.1010     0.4120 hc         1 90A       0.056700
     31 H11         -8.3200    -1.5080    -0.3980 hc         1 90A       0.056700
     32 H12         -5.6300     0.0120     0.4310 hn         1 90A       0.324500
     33 H13          0.4100    -1.2520     2.5630 h1         1 90A       0.025200
     34 H14         -0.9770    -2.3080     2.2900 h1         1 90A       0.025200
     35 H15          0.9170    -3.2800     1.2390 h1         1 90A       0.020700
     36 H16         -0.2100    -2.7730    -0.0210 h1         1 90A       0.020700
     37 H17          2.7500    -3.1270    -0.3580 h1         1 90A       0.015200
     38 H18          1.6010    -2.6320    -1.6030 h1         1 90A       0.015200
     39 H19          3.7380    -1.8230    -2.2270 h1         1 90A       0.019200
     40 H20          2.7330    -0.4330    -1.8100 h1         1 90A       0.019200
     41 H21          5.7030    -0.4980    -1.7450 h1         1 90A       0.023700
     42 H22          4.6750     0.8660    -1.3190 h1         1 90A       0.023700
     43 H23          5.5570     0.7930     1.0280 hc         1 90A       0.029200
     44 H24          6.5620    -0.5740     0.6150 hc         1 90A       0.029200
     45 O1           8.0240     1.6490     0.6770 o          1 90A      -0.741000
@<TRIPOS>BOND
     1     1     2 1   
     2     1     8 1   
     3     1    21 1   
     4     1    22 1   
     5     2     9 1   
     6     2    23 1   
     7     2    24 1   
     8     3     6 2   
     9     3     7 1   
    10     3     8 1   
    11     4     5 1   
    12     4     9 1   
    13     4    25 1   
    14     4    26 1   
    15     5    10 1   
    16     5    27 1   
    17     5    28 1   
    18     7    29 1   
    19     7    30 1   
    20     7    31 1   
    21     8    32 1   
    22    10    11 1   
    23    11    12 1   
    24    11    33 1   
    25    11    34 1   
    26    12    13 1   
    27    12    35 1   
    28    12    36 1   
    29    13    14 1   
    30    14    15 1   
    31    14    37 1   
    32    14    38 1   
    33    15    16 1   
    34    15    39 1   
    35    15    40 1   
    36    16    17 1   
    37    17    18 1   
    38    17    41 1   
    39    17    42 1   
    40    18    19 1   
    41    18    43 1   
    42    18    44 1   
    43    19    20 1   
    44    19    45 1   
@<TRIPOS>SUBSTRUCTURE
     1 90A         1 TEMP              0 ****  ****    0 ROOT
