@<TRIPOS>MOLECULE
90B
   56    59     1     0     0
SMALL
No Charge or Current Charge


@<TRIPOS>ATOM
      1 CAT          7.3270     2.5450    -0.8300 c6         1 90B      -0.092400
      2 CAU          8.1460     3.8140    -1.1650 c6         1 90B       0.160800
      3 NAV          7.9480     4.8610    -0.1350 n7         1 90B      -0.864400
      4 CAW          6.5240     5.2320     0.0420 c6         1 90B       0.160800
      5 CAX          5.6680     3.9950     0.4010 c6         1 90B      -0.092400
      6 CAS          5.8250     2.8840    -0.6670 c6         1 90B       0.113700
      7 NAR          5.0680     1.6830    -0.2880 ns         1 90B      -0.500900
      8 CAQ          3.7170     1.4910    -0.4840 c          1 90B       0.610700
      9 OAY          3.0300     2.3420    -1.0310 o          1 90B      -0.592100
     10 CAP          3.1370     0.1790     0.0060 ca         1 90B      -0.118600
     11 CAZ          1.7530    -0.0700    -0.1590 ca         1 90B      -0.072000
     12 CAO          3.9300    -0.8190     0.6230 ca         1 90B      -0.094000
     13 CAM          3.3470    -2.0230     1.0500 ca         1 90B       0.001100
     14 Br           4.4330    -3.3630     1.8750 br         1 90B      -0.088100
     15 CAL          1.9740    -2.2510     0.8760 ca         1 90B      -0.132000
     16 CAK          1.1660    -1.2710     0.2810 ca         1 90B       0.300000
     17 NAJ         -0.1940    -1.5350     0.1070 nu         1 90B      -0.921900
     18 CAI         -1.3140    -0.7680     0.2210 cc         1 90B       0.733300
     19 SBA         -2.9220    -1.4080     0.0100 ss         1 90B      -0.104400
     20 NAH         -1.2100     0.5020     0.5430 nd         1 90B      -0.717000
     21 CAG         -2.4770     1.0680     0.6260 cd         1 90B       0.399900
     22 CAF         -3.5060     0.1960     0.3710 cc         1 90B      -0.329600
     23 CAE         -4.9150     0.6100     0.4090 c          1 90B       0.662700
     24 OBB         -5.2700     1.7550     0.6560 o          1 90B      -0.569100
     25 NAD         -5.7930    -0.4170     0.1130 ns         1 90B      -0.168000
     26 CAC         -7.2120    -0.4260     0.1010 ca         1 90B      -0.042000
     27 CAB         -7.9660    -0.0540     1.2430 ca         1 90B       0.133000
     28 Cl          -7.1920     0.3650     2.7730 cl         1 90B      -0.183000
     29 CBG         -9.3700    -0.0750     1.1990 ca         1 90B      -0.102000
     30 CBF        -10.0340    -0.4710     0.0280 ca         1 90B      -0.097000
     31 CBE         -9.2940    -0.8620    -1.0990 ca         1 90B      -0.105000
     32 CBC         -7.8850    -0.8490    -1.0700 ca         1 90B      -0.070300
     33 CBD         -7.1060    -1.2770    -2.3110 c3         1 90B      -0.047800
     34 H1           7.4590     1.8020    -1.6270 hc         1 90B       0.054700
     35 H2           7.7150     2.0930     0.0920 hc         1 90B       0.054700
     36 H3           9.2140     3.5580    -1.2280 h1         1 90B       0.033450
     37 H4           7.8380     4.2020    -2.1470 h1         1 90B       0.033450
     38 H5           8.4790     5.7000    -0.4070 hn         1 90B       0.413000
     39 H7           6.4370     5.9850     0.8390 h1         1 90B       0.033450
     40 H8           6.1440     5.6840    -0.8870 h1         1 90B       0.033450
     41 H9           5.9680     3.6150     1.3870 hc         1 90B       0.054700
     42 H10          4.6140     4.2910     0.4860 hc         1 90B       0.054700
     43 H11          5.4400     3.2540    -1.6300 h1         1 90B       0.070700
     44 H12          5.5690     0.9350     0.1700 hn         1 90B       0.315500
     45 H13          1.1270     0.6740    -0.6430 ha         1 90B       0.181000
     46 H14          4.9970    -0.6820     0.7750 ha         1 90B       0.131000
     47 H15          1.5380    -3.1870     1.2130 ha         1 90B       0.127000
     48 H16         -0.4370    -2.5220     0.0960 hn         1 90B       0.508000
     49 H17         -2.5790     2.1180     0.8780 h4         1 90B       0.066100
     50 H18         -5.3560    -1.2940    -0.1390 hn         1 90B       0.159000
     51 H19         -9.9420     0.2060     2.0790 ha         1 90B       0.132000
     52 H20        -11.1220    -0.4860    -0.0020 ha         1 90B       0.119000
     53 H21         -9.8200    -1.1760    -1.9980 ha         1 90B       0.118000
     54 H22         -6.4710    -2.1450    -2.0970 hc         1 90B       0.046367
     55 H23         -7.7730    -1.5550    -3.1360 hc         1 90B       0.046367
     56 H24         -6.4610    -0.4670    -2.6700 hc         1 90B       0.046367
@<TRIPOS>BOND
     1     1     2 1   
     2     1     6 1   
     3     1    34 1   
     4     1    35 1   
     5     2     3 1   
     6     2    36 1   
     7     2    37 1   
     8     3     4 1   
     9     3    38 1   
    10     4     5 1   
    11     4    39 1   
    12     4    40 1   
    13     5     6 1   
    14     5    41 1   
    15     5    42 1   
    16     6     7 1   
    17     6    43 1   
    18     7     8 1   
    19     7    44 1   
    20     8     9 2   
    21     8    10 1   
    22    10    11 ar  
    23    10    12 ar  
    24    11    16 ar  
    25    11    45 1   
    26    12    13 ar  
    27    12    46 1   
    28    13    14 1   
    29    13    15 ar  
    30    15    16 ar  
    31    15    47 1   
    32    16    17 1   
    33    17    18 1   
    34    17    48 1   
    35    18    19 1   
    36    18    20 2   
    37    19    22 1   
    38    20    21 1   
    39    21    22 2   
    40    21    49 1   
    41    22    23 1   
    42    23    24 2   
    43    23    25 1   
    44    25    26 1   
    45    25    50 1   
    46    26    27 ar  
    47    26    32 ar  
    48    27    28 1   
    49    27    29 ar  
    50    29    30 ar  
    51    29    51 1   
    52    30    31 ar  
    53    30    52 1   
    54    31    32 ar  
    55    31    53 1   
    56    32    33 1   
    57    33    54 1   
    58    33    55 1   
    59    33    56 1   
@<TRIPOS>SUBSTRUCTURE
     1 90B         1 TEMP              0 ****  ****    0 ROOT
