@<TRIPOS>MOLECULE
90B
   56    59     1     0     0
SMALL
bcc


@<TRIPOS>ATOM
      1 CAT          6.6740     2.8000    -1.4850 c6         1 90B      -0.092400
      2 CAU          7.3630     4.1370    -1.7200 c6         1 90B       0.160800
      3 NAV          7.8080     4.7000    -0.4580 n7         1 90B      -0.809200
      4 CAW          6.6920     4.9500     0.4370 c6         1 90B       0.160800
      5 CAX          5.9890     3.6410     0.7660 c6         1 90B      -0.092400
      6 CAS          5.5060     2.9730    -0.5210 c6         1 90B       0.113700
      7 NAR          4.8770     1.6880    -0.2710 ns         1 90B      -0.567900
      8 CAQ          3.6240     1.5640     0.1850 c          1 90B       0.677700
      9 OAY          2.8780     2.5180     0.3570 o          1 90B      -0.592100
     10 CAP          3.1510     0.1670     0.4730 ca         1 90B      -0.118600
     11 CAZ          1.7780    -0.0470     0.4560 ca         1 90B      -0.090000
     12 CAO          4.0300    -0.8640     0.7870 ca         1 90B      -0.112000
     13 CAM          3.5030    -2.1150     1.0680 ca         1 90B       0.001100
     14 BR           4.6720    -3.5280     1.5100 br         1 90B      -0.088100
     15 CAL          2.1440    -2.3570     1.0440 ca         1 90B      -0.150000
     16 CAK          1.2680    -1.3120     0.7340 ca         1 90B       0.161600
     17 NAJ         -0.0870    -1.6270     0.7360 nu         1 90B      -0.728300
     18 CAI         -1.1470    -0.8260     0.4890 cc         1 90B       0.733300
     19 SBA         -2.7520    -1.4950     0.5950 ss         1 90B      -0.249300
     20 NAH         -1.1050     0.4350     0.1740 nd         1 90B      -0.717000
     21 CAG         -2.3530     0.9300    -0.0060 cd         1 90B       0.465200
     22 CAF         -3.3890     0.0640     0.1650 cc         1 90B      -0.250000
     23 CAE         -4.8060     0.4080     0.0060 c          1 90B       0.729700
     24 OBB         -5.1500     1.5530    -0.2320 o          1 90B      -0.569100
     25 NAD         -5.6970    -0.6080     0.1350 ns         1 90B      -0.494100
     26 CAC         -7.0840    -0.4040    -0.0000 ca         1 90B       0.050600
     27 CAB         -7.8030     0.2520     0.9960 ca         1 90B       0.041400
     28 CL          -6.9870     0.8050     2.4150 cl         1 90B      -0.091400
     29 CBG         -9.1690     0.4550     0.8830 ca         1 90B      -0.120000
     30 CBF         -9.8240    -0.0180    -0.2430 ca         1 90B      -0.115000
     31 CBE         -9.1210    -0.6810    -1.2370 ca         1 90B      -0.123000
     32 CBC         -7.7470    -0.8760    -1.1360 ca         1 90B      -0.070300
     33 CBD         -6.9870    -1.5820    -2.2190 c3         1 90B      -0.047800
     34 H1           6.3250     2.3910    -2.4360 hc         1 90B       0.054700
     35 H2           7.3970     2.0930    -1.0640 hc         1 90B       0.054700
     36 H3           8.2270     3.9950    -2.3710 h1         1 90B       0.033450
     37 H4           6.6670     4.8040    -2.2560 h1         1 90B       0.033450
     38 H5           8.2990     5.5670    -0.6330 hn         1 90B       0.357800
     39 H7           7.0660     5.4120     1.3520 h1         1 90B       0.033450
     40 H8           5.9530     5.6470     0.0050 h1         1 90B       0.033450
     41 H9           6.6810     2.9690     1.2830 hc         1 90B       0.054700
     42 H10          5.1480     3.8300     1.4360 hc         1 90B       0.054700
     43 H11          4.7650     3.6260    -0.9940 h1         1 90B       0.070700
     44 H12          5.4290     0.8630    -0.4420 hn         1 90B       0.315500
     45 H13          1.1140     0.7710     0.2280 ha         1 90B       0.199000
     46 H14          5.0990    -0.7030     0.8420 ha         1 90B       0.149000
     47 H15          1.7530    -3.3410     1.2700 ha         1 90B       0.145000
     48 H16         -0.2990    -2.5880     0.9590 hn         1 90B       0.452800
     49 H17         -2.4760     1.9690    -0.2760 h4         1 90B       0.066100
     50 H18         -5.3790    -1.5610     0.2340 hn         1 90B       0.325500
     51 H19         -9.7100     0.9710     1.6630 ha         1 90B       0.150000
     52 H20        -10.8910     0.1310    -0.3410 ha         1 90B       0.137000
     53 H21         -9.6440    -1.0480    -2.1110 ha         1 90B       0.136000
     54 H22         -6.6270    -2.5570    -1.8850 hc         1 90B       0.046367
     55 H23         -7.6200    -1.7480    -3.0890 hc         1 90B       0.046367
     56 H24         -6.1160    -1.0100    -2.5390 hc         1 90B       0.046367
@<TRIPOS>BOND
     1     1     2 1   
     2     1     6 1   
     3     1    34 1   
     4     1    35 1   
     5     2     3 1   
     6     2    36 1   
     7     2    37 1   
     8     3     4 1   
     9     3    38 1   
    10     4     5 1   
    11     4    39 1   
    12     4    40 1   
    13     5     6 1   
    14     5    41 1   
    15     5    42 1   
    16     6     7 1   
    17     6    43 1   
    18     7     8 1   
    19     7    44 1   
    20     8     9 2   
    21     8    10 1   
    22    10    11 ar  
    23    10    12 ar  
    24    11    16 ar  
    25    11    45 1   
    26    12    13 ar  
    27    12    46 1   
    28    13    14 1   
    29    13    15 ar  
    30    15    16 ar  
    31    15    47 1   
    32    16    17 1   
    33    17    18 1   
    34    17    48 1   
    35    18    19 1   
    36    18    20 2   
    37    19    22 1   
    38    20    21 1   
    39    21    22 2   
    40    21    49 1   
    41    22    23 1   
    42    23    24 2   
    43    23    25 1   
    44    25    26 1   
    45    25    50 1   
    46    26    27 ar  
    47    26    32 ar  
    48    27    28 1   
    49    27    29 ar  
    50    29    30 ar  
    51    29    51 1   
    52    30    31 ar  
    53    30    52 1   
    54    31    32 ar  
    55    31    53 1   
    56    32    33 1   
    57    33    54 1   
    58    33    55 1   
    59    33    56 1   
@<TRIPOS>SUBSTRUCTURE
     1 90B         1 TEMP              0 ****  ****    0 ROOT
