@<TRIPOS>MOLECULE
90C
   70    73     1     0     0
SMALL
No Charge or Current Charge


@<TRIPOS>ATOM
      1 C10          2.1550    -0.2330    -0.0130 ca         1 90C       0.298000
      2 C13         -0.6730    -0.0410     0.2160 ca         1 90C      -0.089800
      3 C15          1.4270     0.6560    -0.8280 ca         1 90C      -0.165500
      4 C17         -2.7560    -1.2970     0.3930 ca         1 90C      -0.089800
      5 C20         -3.8820    -3.8820     0.5000 ca         1 90C       0.140100
      6 C22         -4.0990    -2.9770     1.5490 ca         1 90C      -0.178500
      7 C24         -2.8580     1.2320     0.3300 ce         1 90C      -0.047400
      8 C26         -5.0330     0.7880    -0.9780 c3         1 90C      -0.079400
      9 C01          8.6360    -2.0610    -0.4410 c3         1 90C      -0.091600
     10 C03          8.8410     0.4380    -0.7000 c3         1 90C      -0.091600
     11 C05          5.8900     0.6950    -0.1680 c6         1 90C       0.158300
     12 C06          4.3960     0.7900    -0.6220 c6         1 90C       0.195800
     13 C08          4.1950    -1.6690    -0.3670 c6         1 90C       0.195800
     14 C09          5.6910    -1.7250     0.0830 c6         1 90C       0.158300
     15 C11          1.4540    -1.0260     0.9130 ca         1 90C      -0.165500
     16 C12          0.0560    -0.9360     1.0260 ca         1 90C      -0.064000
     17 C14          0.0290     0.7480    -0.7180 ca         1 90C      -0.064000
     18 C16         -2.1500     0.0530     0.3330 cf         1 90C       0.014600
     19 C18         -2.5300    -2.2180    -0.6510 ca         1 90C      -0.059000
     20 C19         -3.0950    -3.5050    -0.5990 ca         1 90C      -0.178500
     21 C23         -3.5360    -1.6900     1.4990 ca         1 90C      -0.059000
     22 C25         -4.3880     1.2650     0.3450 c3         1 90C      -0.036200
     23 C27         -6.5720     0.8740    -0.9580 c3         1 90C       0.162600
     24 C29         -2.2210     2.5840     0.3440 ca         1 90C      -0.051800
     25 C30         -1.2940     2.9130     1.3540 ca         1 90C      -0.097500
     26 C31         -0.6830     4.1790     1.3740 ca         1 90C      -0.114000
     27 C32         -0.9960     5.1270     0.3860 ca         1 90C      -0.109000
     28 C33         -1.9210     4.8080    -0.6220 ca         1 90C      -0.114000
     29 C34         -2.5320     3.5410    -0.6430 ca         1 90C      -0.097500
     30 N04          6.5380    -0.6230    -0.4930 n3         1 90C      -0.716600
     31 N07          3.5630    -0.3390    -0.1060 nh         1 90C      -0.787400
     32 O21         -4.4310    -5.1270     0.5580 oh         1 90C      -0.535100
     33 O28         -7.0970     0.4310    -2.2130 oh         1 90C      -0.662000
     34 H1           1.9360     1.2710    -1.5630 ha         1 90C       0.114000
     35 H2          -4.7000    -3.2730     2.4050 ha         1 90C       0.121000
     36 H4          -4.6500     1.3940    -1.8070 hc         1 90C       0.056700
     37 H5          -4.7400    -0.2480    -1.1790 hc         1 90C       0.056700
     38 H6           8.5030    -2.2970    -1.5030 hc         1 90C       0.038033
     39 H7           9.7120    -2.0410    -0.2280 hc         1 90C       0.038033
     40 H8           8.2140    -2.8760     0.1570 hc         1 90C       0.038033
     41 H9           8.0440    -0.5920     0.9990 h1         1 90C       0.019700
     42 H10          8.7300     0.4720    -1.7900 hc         1 90C       0.038033
     43 H11          8.5650     1.4160    -0.2880 hc         1 90C       0.038033
     44 H12          9.9030     0.2890    -0.4700 hc         1 90C       0.038033
     45 H13          6.4210     1.5240    -0.6540 h1         1 90C       0.039200
     46 H14          5.9350     0.8770     0.9160 h1         1 90C       0.039200
     47 H15          3.9920     1.7510    -0.2690 h1         1 90C       0.043700
     48 H16          4.3640     0.8040    -1.7210 h1         1 90C       0.043700
     49 H17          4.1430    -1.8940    -1.4420 h1         1 90C       0.043700
     50 H18          3.6500    -2.4690     0.1550 h1         1 90C       0.043700
     51 H19          5.7250    -1.6880     1.1820 h1         1 90C       0.039200
     52 H20          6.0740    -2.7100    -0.2150 h1         1 90C       0.039200
     53 H21          1.9960    -1.7090     1.5600 ha         1 90C       0.114000
     54 H22         -0.4580    -1.5550     1.7580 ha         1 90C       0.116000
     55 H23         -0.5090     1.4280    -1.3740 ha         1 90C       0.116000
     56 H25         -1.9220    -1.9310    -1.5060 ha         1 90C       0.118500
     57 H26         -2.9160    -4.2010    -1.4150 ha         1 90C       0.121000
     58 H27         -3.6930    -1.0040     2.3280 ha         1 90C       0.118500
     59 H28         -4.7810     0.6630     1.1710 hc         1 90C       0.048200
     60 H29         -4.7400     2.2830     0.5510 hc         1 90C       0.048200
     61 H30         -6.9590     0.2490    -0.1420 h1         1 90C       0.015700
     62 H31         -6.8750     1.9120    -0.7650 h1         1 90C       0.015700
     63 H32         -1.0470     2.1840     2.1220 ha         1 90C       0.116500
     64 H33          0.0330     4.4230     2.1560 ha         1 90C       0.112000
     65 H34         -0.5230     6.1060     0.4020 ha         1 90C       0.111000
     66 H35         -2.1640     5.5400    -1.3880 ha         1 90C       0.112000
     67 H36         -3.2400     3.3040    -1.4320 ha         1 90C       0.116500
     68 H38         -4.1740    -5.6170    -0.2520 ho         1 90C       0.464000
     69 H39         -8.0760     0.5020    -2.1530 ho         1 90C       0.441000
     70 C02          7.9800    -0.6990    -0.0920 c3         1 90C       0.185500
@<TRIPOS>BOND
     1     1     3 ar  
     2     1    15 ar  
     3     1    31 1   
     4     2    16 ar  
     5     2    17 ar  
     6     2    18 1   
     7     3    17 ar  
     8     3    34 1   
     9     4    18 1   
    10     4    19 ar  
    11     4    21 ar  
    12     5     6 ar  
    13     5    20 ar  
    14     5    32 1   
    15     6    21 ar  
    16     6    35 1   
    17     7    18 2   
    18     7    22 1   
    19     7    24 1   
    20     8    22 1   
    21     8    23 1   
    22     8    36 1   
    23     8    37 1   
    24     9    38 1   
    25     9    39 1   
    26     9    40 1   
    27     9    70 1   
    28    10    42 1   
    29    10    43 1   
    30    10    44 1   
    31    10    70 1   
    32    11    12 1   
    33    11    30 1   
    34    11    45 1   
    35    11    46 1   
    36    12    31 1   
    37    12    47 1   
    38    12    48 1   
    39    13    14 1   
    40    13    31 1   
    41    13    49 1   
    42    13    50 1   
    43    14    30 1   
    44    14    51 1   
    45    14    52 1   
    46    15    16 ar  
    47    15    53 1   
    48    16    54 1   
    49    17    55 1   
    50    19    20 ar  
    51    19    56 1   
    52    20    57 1   
    53    21    58 1   
    54    22    59 1   
    55    22    60 1   
    56    23    33 1   
    57    23    61 1   
    58    23    62 1   
    59    24    25 ar  
    60    24    29 ar  
    61    25    26 ar  
    62    25    63 1   
    63    26    27 ar  
    64    26    64 1   
    65    27    28 ar  
    66    27    65 1   
    67    28    29 ar  
    68    28    66 1   
    69    29    67 1   
    70    30    70 1   
    71    32    68 1   
    72    33    69 1   
    73    41    70 1   
@<TRIPOS>SUBSTRUCTURE
     1 90C         1 TEMP              0 ****  ****    0 ROOT
