@<TRIPOS>MOLECULE
90C
   70    73     1     0     0
SMALL
abcg2


@<TRIPOS>ATOM
      1 C10          2.2010    -0.1900     0.1190 ca         1 90C       0.298000
      2 C13         -0.6300    -0.0320     0.2950 ca         1 90C      -0.089800
      3 C15          1.4660     0.6580    -0.7170 ca         1 90C      -0.165500
      4 C17         -2.7660    -1.3110     0.4470 ca         1 90C      -0.089800
      5 C20         -3.9500    -3.8540     0.5920 ca         1 90C       0.140100
      6 C22         -4.1430    -2.9300     1.6160 ca         1 90C      -0.178500
      7 C24         -2.8190     1.1640     0.3620 ce         1 90C      -0.047400
      8 C26         -4.7380     0.8450    -1.2590 c3         1 90C      -0.079400
      9 C01          8.4380    -1.9930    -0.4580 c3         1 90C      -0.091600
     10 C03          8.5600     0.3800    -1.1620 c3         1 90C      -0.091600
     11 C05          5.7820     0.6960    -0.3940 c6         1 90C       0.158300
     12 C06          4.3070     0.6770    -0.7520 c6         1 90C       0.195800
     13 C08          4.1920    -1.5840     0.0000 c6         1 90C       0.195800
     14 C09          5.6690    -1.5390     0.3400 c6         1 90C       0.158300
     15 C11          1.4810    -0.9730     1.0340 ca         1 90C      -0.165500
     16 C12          0.1040    -0.9020     1.1050 ca         1 90C      -0.064000
     17 C14          0.0850     0.7340    -0.6210 ca         1 90C      -0.064000
     18 C16         -2.1060     0.0180     0.3810 cf         1 90C       0.014600
     19 C18         -2.5660    -2.2560    -0.5570 ca         1 90C      -0.059000
     20 C19         -3.1540    -3.5100    -0.4980 ca         1 90C      -0.178500
     21 C23         -3.5540    -1.6790     1.5360 ca         1 90C      -0.059000
     22 C25         -4.3220     1.1700     0.1770 c3         1 90C      -0.036200
     23 C27         -6.2450     0.8750    -1.4170 c3         1 90C       0.162600
     24 C29         -2.1760     2.4930     0.4890 ca         1 90C      -0.051800
     25 C30         -1.2580     2.7440     1.5120 ca         1 90C      -0.097500
     26 C31         -0.6780     3.9940     1.6620 ca         1 90C      -0.114000
     27 C32         -1.0050     5.0260     0.7900 ca         1 90C      -0.109000
     28 C33         -1.9290     4.7960    -0.2210 ca         1 90C      -0.114000
     29 C34         -2.5150     3.5460    -0.3630 ca         1 90C      -0.097500
     30 N04          6.3870    -0.6180    -0.5250 n3         1 90C      -0.716600
     31 N07          3.5920    -0.2620     0.0820 nh         1 90C      -0.787400
     32 O21         -4.5450    -5.0580     0.7090 oh         1 90C      -0.535100
     33 O28         -6.5750     0.5550    -2.7520 oh         1 90C      -0.662000
     34 H1           1.9590     1.2560    -1.4710 ha         1 90C       0.114000
     35 H2          -4.7450    -3.1970     2.4760 ha         1 90C       0.121000
     36 H4          -4.2840     1.5590    -1.9520 hc         1 90C       0.056700
     37 H5          -4.3600    -0.1440    -1.5300 hc         1 90C       0.056700
     38 H6           8.2200    -2.3640    -1.4610 hc         1 90C       0.038033
     39 H7           9.5210    -1.9390    -0.3470 hc         1 90C       0.038033
     40 H8           8.0850    -2.7310     0.2610 hc         1 90C       0.038033
     41 H9           8.0100    -0.3030     0.7910 h1         1 90C       0.019700
     42 H10          8.3330     0.1810    -2.2110 hc         1 90C       0.038033
     43 H11          8.3190     1.4210    -0.9530 hc         1 90C       0.038033
     44 H12          9.6360     0.2740    -1.0250 hc         1 90C       0.038033
     45 H13          6.2640     1.4030    -1.0670 h1         1 90C       0.039200
     46 H14          5.8970     1.0930     0.6300 h1         1 90C       0.039200
     47 H15          3.9130     1.6830    -0.5940 h1         1 90C       0.043700
     48 H16          4.1960     0.4420    -1.8220 h1         1 90C       0.043700
     49 H17          4.0650    -1.9990    -1.0110 h1         1 90C       0.043700
     50 H18          3.7050    -2.2680     0.6930 h1         1 90C       0.043700
     51 H19          5.7880    -1.2720     1.4040 h1         1 90C       0.039200
     52 H20          6.0520    -2.5510     0.2150 h1         1 90C       0.039200
     53 H21          2.0060    -1.6330     1.7130 ha         1 90C       0.114000
     54 H22         -0.4110    -1.5270     1.8260 ha         1 90C       0.116000
     55 H23         -0.4460     1.3910    -1.2980 ha         1 90C       0.116000
     56 H25         -1.9410    -2.0090    -1.4070 ha         1 90C       0.118500
     57 H26         -2.9900    -4.2190    -1.3010 ha         1 90C       0.121000
     58 H27         -3.7000    -0.9760     2.3480 ha         1 90C       0.118500
     59 H28         -4.7970     0.4560     0.8510 hc         1 90C       0.048200
     60 H29         -4.7180     2.1490     0.4570 hc         1 90C       0.048200
     61 H30         -6.6950     0.1630    -0.7110 h1         1 90C       0.015700
     62 H31         -6.6200     1.8700    -1.1400 h1         1 90C       0.015700
     63 H32         -1.0010     1.9490     2.2010 ha         1 90C       0.116500
     64 H33          0.0260     4.1640     2.4660 ha         1 90C       0.112000
     65 H34         -0.5520     6.0020     0.9050 ha         1 90C       0.111000
     66 H35         -2.1980     5.5940    -0.9010 ha         1 90C       0.112000
     67 H36         -3.2330     3.3910    -1.1580 ha         1 90C       0.116500
     68 H38         -4.3130    -5.6220    -0.0370 ho         1 90C       0.464000
     69 H39         -7.5310     0.6000    -2.8440 ho         1 90C       0.441000
     70 C02          7.8280    -0.6080    -0.2560 c3         1 90C       0.185500
@<TRIPOS>BOND
     1     1     3 ar  
     2     1    15 ar  
     3     1    31 1   
     4     2    16 ar  
     5     2    17 ar  
     6     2    18 1   
     7     3    17 ar  
     8     3    34 1   
     9     4    18 1   
    10     4    19 ar  
    11     4    21 ar  
    12     5     6 ar  
    13     5    20 ar  
    14     5    32 1   
    15     6    21 ar  
    16     6    35 1   
    17     7    18 2   
    18     7    22 1   
    19     7    24 1   
    20     8    22 1   
    21     8    23 1   
    22     8    36 1   
    23     8    37 1   
    24     9    38 1   
    25     9    39 1   
    26     9    40 1   
    27     9    70 1   
    28    10    42 1   
    29    10    43 1   
    30    10    44 1   
    31    10    70 1   
    32    11    12 1   
    33    11    30 1   
    34    11    45 1   
    35    11    46 1   
    36    12    31 1   
    37    12    47 1   
    38    12    48 1   
    39    13    14 1   
    40    13    31 1   
    41    13    49 1   
    42    13    50 1   
    43    14    30 1   
    44    14    51 1   
    45    14    52 1   
    46    15    16 ar  
    47    15    53 1   
    48    16    54 1   
    49    17    55 1   
    50    19    20 ar  
    51    19    56 1   
    52    20    57 1   
    53    21    58 1   
    54    22    59 1   
    55    22    60 1   
    56    23    33 1   
    57    23    61 1   
    58    23    62 1   
    59    24    25 ar  
    60    24    29 ar  
    61    25    26 ar  
    62    25    63 1   
    63    26    27 ar  
    64    26    64 1   
    65    27    28 ar  
    66    27    65 1   
    67    28    29 ar  
    68    28    66 1   
    69    29    67 1   
    70    30    70 1   
    71    32    68 1   
    72    33    69 1   
    73    41    70 1   
@<TRIPOS>SUBSTRUCTURE
     1 90C         1 TEMP              0 ****  ****    0 ROOT
