@<TRIPOS>MOLECULE
90D
   80    82     1     0     0
SMALL
No Charge or Current Charge


@<TRIPOS>ATOM
      1 C01          3.3660     4.9860    -0.0160 c3         1 90D      -0.086100
      2 C02          3.1170     3.7650    -0.9210 c3         1 90D      -0.035100
      3 C03          1.6340     3.4580    -1.0850 ca         1 90D      -0.068300
      4 C04          0.9520     3.8240    -2.2610 ca         1 90D      -0.104000
      5 C05         -0.4170     3.5430    -2.4000 ca         1 90D      -0.112000
      6 C06         -1.1080     2.8810    -1.3710 ca         1 90D      -0.081000
      7 C07         -0.4380     2.4780    -0.1910 cp         1 90D      -0.018000
      8 C08          0.9320     2.8050    -0.0540 ca         1 90D      -0.090000
      9 C09         -1.1800     1.8130     0.9240 cp         1 90D      -0.044000
     10 C10         -1.6030     2.6580     1.9840 ca         1 90D       0.171000
     11 F11         -1.3380     3.9850     1.9410 f          1 90D      -0.173000
     12 C12         -2.2980     2.1640     3.0910 ca         1 90D      -0.151000
     13 C13         -2.5840     0.8010     3.1720 ca         1 90D      -0.088000
     14 C14         -2.1770    -0.0610     2.1450 ca         1 90D      -0.137000
     15 C15         -1.4770     0.4000     0.9960 ca         1 90D      -0.030300
     16 C16         -1.0570    -0.6730    -0.0760 c3         1 90D       0.243300
     17 O17         -0.8380    -0.0680    -1.3510 oh         1 90D      -0.640000
     18 C18         -2.2100    -1.6990    -0.3630 c3         1 90D      -0.099400
     19 C19         -3.5720    -1.0770    -0.7810 c3         1 90D      -0.093400
     20 C20         -4.6380    -2.1410    -1.1000 c3         1 90D       0.121000
     21 N21         -5.9170    -1.5300    -1.4640 ns         1 90D      -0.504900
     22 C22         -7.1140    -1.7940    -0.8600 c          1 90D       0.635100
     23 O23         -7.2920    -2.5990     0.0420 o          1 90D      -0.547000
     24 O24         -8.0750    -1.0300    -1.4490 os         1 90D      -0.460100
     25 C25         -9.4290    -1.1780    -0.9790 c3         1 90D       0.171900
     26 C26          0.2870    -1.4040     0.3250 c6         1 90D      -0.106700
     27 C28          0.2140    -2.2800     1.6180 c6         1 90D      -0.071400
     28 C29          1.5710    -2.9630     1.9130 c6         1 90D      -0.097400
     29 C30          2.7080    -1.9210     1.9870 c6         1 90D       0.102000
     30 N31          2.7570    -1.1240     0.7330 n          1 90D      -0.416800
     31 C32          1.4800    -0.4130     0.4550 c6         1 90D       0.093000
     32 C33          3.8090    -1.1840    -0.2150 c          1 90D       0.607100
     33 O34          3.7030    -0.6220    -1.2980 o          1 90D      -0.601100
     34 C35          5.1000    -1.9450     0.1510 c3         1 90D      -0.153400
     35 C36          6.2460    -1.8770    -0.8890 c3         1 90D      -0.069400
     36 C37          7.4970    -2.6620    -0.4460 c3         1 90D       0.153800
     37 N38          8.5510    -2.5730    -1.4710 n7         1 90D      -0.854400
     38 C39          9.7870    -3.3180    -1.1610 c3         1 90D       0.144100
     39 H1           2.9620     4.8140     0.9880 hc         1 90D       0.032367
     40 H2           4.4410     5.1820     0.0750 hc         1 90D       0.032367
     41 H3           2.8870     5.8790    -0.4340 hc         1 90D       0.032367
     42 H4           3.5820     3.9450    -1.8980 hc         1 90D       0.052700
     43 H5           3.6320     2.8950    -0.4950 hc         1 90D       0.052700
     44 H6           1.4800     4.3330    -3.0640 ha         1 90D       0.109000
     45 H7          -0.9430     3.8350    -3.3060 ha         1 90D       0.109000
     46 H8          -2.1670     2.6660    -1.4850 ha         1 90D       0.109000
     47 H9           1.4510     2.5460     0.8640 ha         1 90D       0.110000
     48 H10         -2.6080     2.8390     3.8850 ha         1 90D       0.135000
     49 H11         -3.1180     0.4060     4.0350 ha         1 90D       0.118000
     50 H12         -2.4100    -1.1140     2.2680 ha         1 90D       0.115000
     51 H13         -0.6170    -0.7900    -1.9740 ho         1 90D       0.448000
     52 H14         -1.8850    -2.3810    -1.1590 hc         1 90D       0.046700
     53 H15         -2.3860    -2.3440     0.5020 hc         1 90D       0.046700
     54 H16         -3.9490    -0.4320     0.0220 hc         1 90D       0.057700
     55 H17         -3.4370    -0.4390    -1.6630 hc         1 90D       0.057700
     56 H18         -4.2990    -2.7640    -1.9380 h1         1 90D       0.048200
     57 H19         -4.7730    -2.7930    -0.2260 h1         1 90D       0.048200
     58 H20         -5.9390    -0.8400    -2.2050 hn         1 90D       0.329500
     59 H21         -9.7870    -2.2050    -1.1360 h1         1 90D       0.047033
     60 H22         -9.5010    -0.9440     0.0920 h1         1 90D       0.047033
     61 H23        -10.0970    -0.4980    -1.5230 h1         1 90D       0.047033
     62 H24          0.5200    -2.0830    -0.5090 hc         1 90D       0.051700
     63 H25         -0.0580    -1.6610     2.4830 hc         1 90D       0.046200
     64 H26         -0.5560    -3.0570     1.5280 hc         1 90D       0.046200
     65 H27          1.5140    -3.5190     2.8590 hc         1 90D       0.049200
     66 H28          1.7970    -3.6990     1.1280 hc         1 90D       0.049200
     67 H29          2.5210    -1.2410     2.8310 h1         1 90D       0.047700
     68 H30          3.6550    -2.4320     2.1960 h1         1 90D       0.047700
     69 H31          1.5690     0.1880    -0.4600 h1         1 90D       0.073700
     70 H32          1.2820     0.2840     1.2810 h1         1 90D       0.073700
     71 H33          5.4330    -1.5930     1.1350 hc         1 90D       0.055200
     72 H34          4.8250    -2.9830     0.3700 hc         1 90D       0.055200
     73 H35          5.8900    -2.2790    -1.8460 hc         1 90D       0.063200
     74 H36          6.5170    -0.8280    -1.0590 hc         1 90D       0.063200
     75 H37          7.8570    -2.2540     0.5090 h1         1 90D       0.023700
     76 H38          7.2180    -3.7110    -0.2780 h1         1 90D       0.023700
     77 H39          8.7980    -1.5820    -1.5910 hn         1 90D       0.407000
     78 H41         10.5170    -3.2100    -1.9730 h1         1 90D       0.028367
     79 H42         10.2470    -2.9450    -0.2360 h1         1 90D       0.028367
     80 H43          9.5760    -4.3880    -1.0330 h1         1 90D       0.028367
@<TRIPOS>BOND
     1     1     2 1   
     2     1    39 1   
     3     1    40 1   
     4     1    41 1   
     5     2     3 1   
     6     2    42 1   
     7     2    43 1   
     8     3     4 ar  
     9     3     8 ar  
    10     4     5 ar  
    11     4    44 1   
    12     5     6 ar  
    13     5    45 1   
    14     6     7 ar  
    15     6    46 1   
    16     7     8 ar  
    17     7     9 1   
    18     8    47 1   
    19     9    10 ar  
    20     9    15 ar  
    21    10    11 1   
    22    10    12 ar  
    23    12    13 ar  
    24    12    48 1   
    25    13    14 ar  
    26    13    49 1   
    27    14    15 ar  
    28    14    50 1   
    29    15    16 1   
    30    16    17 1   
    31    16    18 1   
    32    16    26 1   
    33    17    51 1   
    34    18    19 1   
    35    18    52 1   
    36    18    53 1   
    37    19    20 1   
    38    19    54 1   
    39    19    55 1   
    40    20    21 1   
    41    20    56 1   
    42    20    57 1   
    43    21    22 1   
    44    21    58 1   
    45    22    23 2   
    46    22    24 1   
    47    24    25 1   
    48    25    59 1   
    49    25    60 1   
    50    25    61 1   
    51    26    27 1   
    52    26    31 1   
    53    26    62 1   
    54    27    28 1   
    55    27    63 1   
    56    27    64 1   
    57    28    29 1   
    58    28    65 1   
    59    28    66 1   
    60    29    30 1   
    61    29    67 1   
    62    29    68 1   
    63    30    31 1   
    64    30    32 1   
    65    31    69 1   
    66    31    70 1   
    67    32    33 2   
    68    32    34 1   
    69    34    35 1   
    70    34    71 1   
    71    34    72 1   
    72    35    36 1   
    73    35    73 1   
    74    35    74 1   
    75    36    37 1   
    76    36    75 1   
    77    36    76 1   
    78    37    38 1   
    79    37    77 1   
    80    38    78 1   
    81    38    79 1   
    82    38    80 1   
@<TRIPOS>SUBSTRUCTURE
     1 90D         1 TEMP              0 ****  ****    0 ROOT
