@<TRIPOS>MOLECULE
90D
   80    82     1     0     0
SMALL
bcc


@<TRIPOS>ATOM
      1 C01          3.3890     4.8310    -0.4330 c3         1 90D      -0.086100
      2 C02          2.9530     3.6660    -1.3200 c3         1 90D      -0.035100
      3 C03          1.4680     3.4360    -1.2730 ca         1 90D      -0.068300
      4 C04          0.6280     3.8810    -2.2880 ca         1 90D      -0.122000
      5 C05         -0.7450     3.6770    -2.2080 ca         1 90D      -0.130000
      6 C06         -1.2920     3.0100    -1.1250 ca         1 90D      -0.099000
      7 C07         -0.4650     2.5430    -0.1080 cp         1 90D      -0.018000
      8 C08          0.8980     2.7860    -0.1790 ca         1 90D      -0.108000
      9 C09         -1.0470     1.8830     1.0950 cp         1 90D      -0.044000
     10 C10         -1.3650     2.7430     2.1440 ca         1 90D       0.135900
     11 F11         -1.1270     4.0560     1.9700 f          1 90D      -0.137900
     12 C12         -1.9100     2.3450     3.3440 ca         1 90D      -0.169000
     13 C13         -2.1620     0.9940     3.5090 ca         1 90D      -0.106000
     14 C14         -1.8660     0.1040     2.4910 ca         1 90D      -0.155000
     15 C15         -1.3030     0.5130     1.2780 ca         1 90D      -0.030300
     16 C16         -0.9920    -0.5680     0.2430 c3         1 90D       0.220100
     17 O17         -0.7710     0.0760    -0.9890 oh         1 90D      -0.577800
     18 C18         -2.1800    -1.5350     0.0780 c3         1 90D      -0.099400
     19 C19         -3.4370    -0.8780    -0.4760 c3         1 90D      -0.093400
     20 C20         -4.5840    -1.8730    -0.5470 c3         1 90D       0.121000
     21 N21         -5.7530    -1.2480    -1.1280 ns         1 90D      -0.571900
     22 C22         -6.8770    -1.9350    -1.3790 c          1 90D       0.751100
     23 O23         -7.0180    -3.1280    -1.1880 o          1 90D      -0.596000
     24 O24         -7.8330    -1.1410    -1.8750 os         1 90D      -0.436900
     25 C25         -9.0740    -1.7550    -2.1970 c3         1 90D       0.148700
     26 C26          0.2950    -1.3650     0.6060 c6         1 90D      -0.106700
     27 C28          0.2280    -2.2850     1.8240 c6         1 90D      -0.071400
     28 C29          1.5430    -3.0450     1.9810 c6         1 90D      -0.097400
     29 C30          2.7260    -2.0890     2.0460 c6         1 90D       0.102000
     30 N31          2.7290    -1.2060     0.8950 n          1 90D      -0.483800
     31 C32          1.5060    -0.4410     0.7420 c6         1 90D       0.093000
     32 C33          3.7310    -1.0950    -0.0080 c          1 90D       0.674100
     33 O34          3.6670    -0.3230    -0.9570 o          1 90D      -0.601100
     34 C35          4.9550    -1.9690     0.2010 c3         1 90D      -0.153400
     35 C36          6.0160    -1.7880    -0.8730 c3         1 90D      -0.069400
     36 C37          7.2040    -2.7050    -0.6280 c3         1 90D       0.153800
     37 N38          8.2200    -2.5370    -1.6470 n7         1 90D      -0.799200
     38 C39          9.3680    -3.3940    -1.4350 c3         1 90D       0.144100
     39 H1           3.1120     4.6630     0.6090 hc         1 90D       0.032367
     40 H2           4.4710     4.9680    -0.4710 hc         1 90D       0.032367
     41 H3           2.9220     5.7630    -0.7540 hc         1 90D       0.032367
     42 H4           3.2610     3.8620    -2.3490 hc         1 90D       0.052700
     43 H5           3.4700     2.7540    -1.0080 hc         1 90D       0.052700
     44 H6           1.0490     4.3890    -3.1480 ha         1 90D       0.127000
     45 H7          -1.3890     4.0350    -3.0020 ha         1 90D       0.127000
     46 H8          -2.3590     2.8370    -1.0720 ha         1 90D       0.127000
     47 H9           1.5410     2.4470     0.6250 ha         1 90D       0.128000
     48 H10         -2.1330     3.0690     4.1160 ha         1 90D       0.153000
     49 H11         -2.5950     0.6320     4.4310 ha         1 90D       0.136000
     50 H12         -2.0910    -0.9390     2.6560 ha         1 90D       0.133000
     51 H13         -0.5300    -0.5960    -1.6370 ho         1 90D       0.409000
     52 H14         -1.8620    -2.3380    -0.5970 hc         1 90D       0.046700
     53 H15         -2.4190    -2.0310     1.0200 hc         1 90D       0.046700
     54 H16         -3.7300    -0.0320     0.1530 hc         1 90D       0.057700
     55 H17         -3.2410    -0.4770    -1.4720 hc         1 90D       0.057700
     56 H18         -4.2860    -2.7350    -1.1500 h1         1 90D       0.048200
     57 H19         -4.8110    -2.2490     0.4550 h1         1 90D       0.048200
     58 H20         -5.7440    -0.2520    -1.2790 hn         1 90D       0.329500
     59 H21         -8.9590    -2.5280    -2.9580 h1         1 90D       0.047033
     60 H22         -9.5530    -2.1880    -1.3190 h1         1 90D       0.047033
     61 H23         -9.7050    -0.9630    -2.5900 h1         1 90D       0.047033
     62 H24          0.4760    -2.0170    -0.2620 hc         1 90D       0.051700
     63 H25          0.0500    -1.7000     2.7310 hc         1 90D       0.046200
     64 H26         -0.5950    -2.9970     1.7340 hc         1 90D       0.046200
     65 H27          1.5230    -3.6520     2.8880 hc         1 90D       0.049200
     66 H28          1.6820    -3.7300     1.1390 hc         1 90D       0.049200
     67 H29          2.6550    -1.4780     2.9540 h1         1 90D       0.047700
     68 H30          3.6580    -2.6410     2.1110 h1         1 90D       0.047700
     69 H31          1.6020     0.2070    -0.1230 h1         1 90D       0.073700
     70 H32          1.3820     0.1980     1.6250 h1         1 90D       0.073700
     71 H33          5.3850    -1.7590     1.1850 hc         1 90D       0.055200
     72 H34          4.6450    -3.0190     0.2330 hc         1 90D       0.055200
     73 H35          5.6000    -1.9990    -1.8600 hc         1 90D       0.063200
     74 H36          6.3570    -0.7490    -0.8890 hc         1 90D       0.063200
     75 H37          7.5950    -2.5340     0.3900 h1         1 90D       0.023700
     76 H38          6.8670    -3.7470    -0.6500 h1         1 90D       0.023700
     77 H39          8.5290    -1.5730    -1.6410 hn         1 90D       0.351800
     78 H41         10.1340    -3.1790    -2.1810 h1         1 90D       0.028367
     79 H42          9.8280    -3.2930    -0.4420 h1         1 90D       0.028367
     80 H43          9.0780    -4.4400    -1.5540 h1         1 90D       0.028367
@<TRIPOS>BOND
     1     1     2 1   
     2     1    39 1   
     3     1    40 1   
     4     1    41 1   
     5     2     3 1   
     6     2    42 1   
     7     2    43 1   
     8     3     4 ar  
     9     3     8 ar  
    10     4     5 ar  
    11     4    44 1   
    12     5     6 ar  
    13     5    45 1   
    14     6     7 ar  
    15     6    46 1   
    16     7     8 ar  
    17     7     9 1   
    18     8    47 1   
    19     9    10 ar  
    20     9    15 ar  
    21    10    11 1   
    22    10    12 ar  
    23    12    13 ar  
    24    12    48 1   
    25    13    14 ar  
    26    13    49 1   
    27    14    15 ar  
    28    14    50 1   
    29    15    16 1   
    30    16    17 1   
    31    16    18 1   
    32    16    26 1   
    33    17    51 1   
    34    18    19 1   
    35    18    52 1   
    36    18    53 1   
    37    19    20 1   
    38    19    54 1   
    39    19    55 1   
    40    20    21 1   
    41    20    56 1   
    42    20    57 1   
    43    21    22 1   
    44    21    58 1   
    45    22    23 2   
    46    22    24 1   
    47    24    25 1   
    48    25    59 1   
    49    25    60 1   
    50    25    61 1   
    51    26    27 1   
    52    26    31 1   
    53    26    62 1   
    54    27    28 1   
    55    27    63 1   
    56    27    64 1   
    57    28    29 1   
    58    28    65 1   
    59    28    66 1   
    60    29    30 1   
    61    29    67 1   
    62    29    68 1   
    63    30    31 1   
    64    30    32 1   
    65    31    69 1   
    66    31    70 1   
    67    32    33 2   
    68    32    34 1   
    69    34    35 1   
    70    34    71 1   
    71    34    72 1   
    72    35    36 1   
    73    35    73 1   
    74    35    74 1   
    75    36    37 1   
    76    36    75 1   
    77    36    76 1   
    78    37    38 1   
    79    37    77 1   
    80    38    78 1   
    81    38    79 1   
    82    38    80 1   
@<TRIPOS>SUBSTRUCTURE
     1 90D         1 TEMP              0 ****  ****    0 ROOT
