@<TRIPOS>MOLECULE
90E
   56    59     1     0     0
SMALL
No Charge or Current Charge


@<TRIPOS>ATOM
      1 FAX          5.5710    -2.5920    -0.3570 f          1 90E      -0.117000
      2 CAW          6.7490    -1.8660    -0.1030 c6         1 90E       0.121000
      3 FAY          7.0810    -1.2180    -1.3110 f          1 90E      -0.117000
      4 CAV          7.8840    -2.8590     0.2750 c6         1 90E       0.112800
      5 NAU          9.1310    -2.1510     0.6920 n7         1 90E      -0.849400
      6 CAT          8.9000    -1.1920     1.8000 c6         1 90E       0.153800
      7 CAS          7.8350    -0.1390     1.4080 c6         1 90E      -0.130400
      8 CAR          6.4920    -0.8090     1.0160 c6         1 90E       0.066700
      9 NAQ          5.5190     0.2210     0.6040 ns         1 90E      -0.499900
     10 CAP          4.1500     0.1470     0.7570 c          1 90E       0.619700
     11 OAZ          3.6260    -0.7970     1.3310 o          1 90E      -0.582100
     12 CAO          3.3400     1.2970     0.1890 ca         1 90E      -0.117600
     13 CBA          1.9300     1.2750     0.3090 ca         1 90E      -0.078000
     14 CAN          3.9440     2.4030    -0.4580 ca         1 90E      -0.112000
     15 CAM          3.1540     3.4510    -0.9600 ca         1 90E      -0.090000
     16 CAL          1.7570     3.4090    -0.8290 ca         1 90E      -0.148000
     17 CAK          1.1360     2.3170    -0.2050 ca         1 90E       0.294000
     18 NAJ         -0.2540     2.3200    -0.0790 nu         1 90E      -0.921900
     19 CAI         -1.2020     1.3460    -0.1690 cc         1 90E       0.735300
     20 SBB         -2.9080     1.6780    -0.0370 ss         1 90E      -0.109400
     21 NAH         -0.8490     0.1020    -0.4060 nd         1 90E      -0.717000
     22 CAG         -1.9820    -0.6990    -0.4810 cd         1 90E       0.400900
     23 CAF         -3.1650    -0.0270    -0.3060 cc         1 90E      -0.332600
     24 CAE         -4.4680    -0.7040    -0.3500 c          1 90E       0.663700
     25 OBC         -4.5910    -1.9080    -0.5300 o          1 90E      -0.569100
     26 NAD         -5.5340     0.1520    -0.1400 ns         1 90E      -0.169000
     27 CAC         -6.9300    -0.1100    -0.1610 ca         1 90E      -0.041000
     28 CAB         -7.5590    -0.6850    -1.2930 ca         1 90E       0.132000
     29 ClA         -6.6670    -1.0390    -2.7750 cl         1 90E      -0.183000
     30 CBH         -8.9420    -0.9310    -1.2820 ca         1 90E      -0.101000
     31 CBG         -9.7090    -0.6010    -0.1550 ca         1 90E      -0.098000
     32 CBF         -9.0960    -0.0090     0.9600 ca         1 90E      -0.105000
     33 CBD         -7.7100     0.2460     0.9640 ca         1 90E      -0.072300
     34 CBE         -7.0700     0.8880     2.1920 c3         1 90E      -0.047800
     35 H1           7.5330    -3.5020     1.0980 h1         1 90E       0.081700
     36 H2           8.0940    -3.5180    -0.5810 h1         1 90E       0.081700
     37 H3           9.4890    -1.6240    -0.1160 hn         1 90E       0.422000
     38 H5           8.5670    -1.7360     2.6990 h1         1 90E       0.061700
     39 H6           9.8430    -0.6850     2.0550 h1         1 90E       0.061700
     40 H7           7.6750     0.5470     2.2510 hc         1 90E       0.058700
     41 H8           8.2130     0.4730     0.5770 hc         1 90E       0.058700
     42 H9           6.0970    -1.3340     1.9000 h1         1 90E       0.104700
     43 H10          5.8700     1.0340     0.1170 hn         1 90E       0.319500
     44 H11          1.4460     0.4450     0.8140 ha         1 90E       0.180000
     45 H12          5.0220     2.4710    -0.5780 ha         1 90E       0.112000
     46 H13          3.6280     4.2990    -1.4510 ha         1 90E       0.118000
     47 H14          1.1590     4.2270    -1.2220 ha         1 90E       0.112000
     48 H15         -0.6810     3.2400    -0.1370 hn         1 90E       0.506000
     49 H16         -1.8740    -1.7620    -0.6670 h4         1 90E       0.065100
     50 H17         -5.2800     1.1090     0.0650 hn         1 90E       0.158000
     51 H18         -9.4210    -1.3680    -2.1550 ha         1 90E       0.132000
     52 H19        -10.7810    -0.7910    -0.1510 ha         1 90E       0.119000
     53 H20         -9.7030     0.2510     1.8250 ha         1 90E       0.117000
     54 H21         -6.6020     1.8460     1.9370 hc         1 90E       0.045700
     55 H22         -7.8050     1.0820     2.9820 hc         1 90E       0.045700
     56 H23         -6.2960     0.2380     2.6180 hc         1 90E       0.045700
@<TRIPOS>BOND
     1     1     2 1   
     2     2     3 1   
     3     2     4 1   
     4     2     8 1   
     5     4     5 1   
     6     4    35 1   
     7     4    36 1   
     8     5     6 1   
     9     5    37 1   
    10     6     7 1   
    11     6    38 1   
    12     6    39 1   
    13     7     8 1   
    14     7    40 1   
    15     7    41 1   
    16     8     9 1   
    17     8    42 1   
    18     9    10 1   
    19     9    43 1   
    20    10    11 2   
    21    10    12 1   
    22    12    13 ar  
    23    12    14 ar  
    24    13    17 ar  
    25    13    44 1   
    26    14    15 ar  
    27    14    45 1   
    28    15    16 ar  
    29    15    46 1   
    30    16    17 ar  
    31    16    47 1   
    32    17    18 1   
    33    18    19 1   
    34    18    48 1   
    35    19    20 1   
    36    19    21 2   
    37    20    23 1   
    38    21    22 1   
    39    22    23 2   
    40    22    49 1   
    41    23    24 1   
    42    24    25 2   
    43    24    26 1   
    44    26    27 1   
    45    26    50 1   
    46    27    28 ar  
    47    27    33 ar  
    48    28    29 1   
    49    28    30 ar  
    50    30    31 ar  
    51    30    51 1   
    52    31    32 ar  
    53    31    52 1   
    54    32    33 ar  
    55    32    53 1   
    56    33    34 1   
    57    34    54 1   
    58    34    55 1   
    59    34    56 1   
@<TRIPOS>SUBSTRUCTURE
     1 90E         1 TEMP              0 ****  ****    0 ROOT
