@<TRIPOS>MOLECULE
90E
   56    59     1     0     0
SMALL
abcg2


@<TRIPOS>ATOM
      1 FAX          5.9910    -2.0490    -1.3100 f          1 90E      -0.117000
      2 CAW          6.9310    -1.5740    -0.4420 c6         1 90E       0.121000
      3 FAY          7.6100    -0.6040    -1.1350 f          1 90E      -0.117000
      4 CAV          7.8950    -2.6820    -0.0520 c6         1 90E       0.112800
      5 NAU          8.8840    -2.2500     0.9090 n7         1 90E      -0.849400
      6 CAT          8.2770    -1.6500     2.0850 c6         1 90E       0.153800
      7 CAS          7.3240    -0.4970     1.7730 c6         1 90E      -0.130400
      8 CAR          6.2600    -0.9350     0.7670 c6         1 90E       0.066700
      9 NAQ          5.4180     0.1690     0.3810 ns         1 90E      -0.499900
     10 CAP          4.0800     0.0860     0.2550 c          1 90E       0.619700
     11 OAZ          3.4590    -0.9450     0.4670 o          1 90E      -0.582100
     12 CAO          3.3660     1.3450    -0.1500 ca         1 90E      -0.117600
     13 CBA          1.9730     1.2970    -0.1380 ca         1 90E      -0.078000
     14 CAN          4.0200     2.5090    -0.5380 ca         1 90E      -0.112000
     15 CAM          3.2760     3.6220    -0.9050 ca         1 90E      -0.090000
     16 CAL          1.8960     3.5810    -0.8940 ca         1 90E      -0.148000
     17 CAK          1.2310     2.4130    -0.5130 ca         1 90E       0.294000
     18 NAJ         -0.1630     2.4530    -0.5480 nu         1 90E      -0.921900
     19 CAI         -1.0530     1.4780    -0.2710 cc         1 90E       0.735300
     20 SBB         -2.7470     1.7830    -0.5410 ss         1 90E      -0.109400
     21 NAH         -0.7820     0.2880     0.1840 nd         1 90E      -0.717000
     22 CAG         -1.9150    -0.4360     0.3440 cd         1 90E       0.400900
     23 CAF         -3.0880     0.1740     0.0220 cc         1 90E      -0.332600
     24 CAE         -4.4150    -0.4430     0.1220 c          1 90E       0.663700
     25 OBC         -4.5410    -1.6210     0.4050 o          1 90E      -0.569100
     26 NAD         -5.4790     0.3660    -0.1200 ns         1 90E      -0.169000
     27 CAC         -6.8030    -0.1120    -0.0830 ca         1 90E      -0.041000
     28 CAB         -7.2850    -0.9390    -1.0960 ca         1 90E       0.132000
     29 CLA         -6.2520    -1.3650    -2.4140 cl         1 90E      -0.183000
     30 CBH         -8.5870    -1.4120    -1.0810 ca         1 90E      -0.101000
     31 CBG         -9.4220    -1.0380    -0.0400 ca         1 90E      -0.098000
     32 CBF         -8.9580    -0.2060     0.9670 ca         1 90E      -0.105000
     33 CBD         -7.6480     0.2610     0.9660 ca         1 90E      -0.072300
     34 CBE         -7.1450     1.1530     2.0610 c3         1 90E      -0.047800
     35 H1           7.3140    -3.5040     0.3770 h1         1 90E       0.081700
     36 H2           8.3880    -3.0690    -0.9470 h1         1 90E       0.081700
     37 H3           9.5280    -1.5990     0.4760 hn         1 90E       0.422000
     38 H5           7.7310    -2.4330     2.6200 h1         1 90E       0.061700
     39 H6           9.0690    -1.3060     2.7520 h1         1 90E       0.061700
     40 H7           6.8300    -0.1580     2.6860 hc         1 90E       0.058700
     41 H8           7.8870     0.3540     1.3770 hc         1 90E       0.058700
     42 H9           5.6310    -1.6980     1.2320 h1         1 90E       0.104700
     43 H10          5.8790     1.0500     0.2290 hn         1 90E       0.319500
     44 H11          1.4760     0.3900     0.1650 ha         1 90E       0.180000
     45 H12          5.0980     2.5850    -0.5810 ha         1 90E       0.112000
     46 H13          3.7790     4.5290    -1.2100 ha         1 90E       0.118000
     47 H14          1.3300     4.4560    -1.1890 ha         1 90E       0.112000
     48 H15         -0.5490     3.3270    -0.8700 hn         1 90E       0.506000
     49 H16         -1.8470    -1.4480     0.7180 h4         1 90E       0.065100
     50 H17         -5.3530     1.3630    -0.2160 hn         1 90E       0.158000
     51 H18         -8.9430    -2.0540    -1.8740 ha         1 90E       0.132000
     52 H19        -10.4410    -1.3990    -0.0190 ha         1 90E       0.119000
     53 H20         -9.6200     0.0800     1.7740 ha         1 90E       0.117000
     54 H21         -6.9070     2.1510     1.6890 hc         1 90E       0.045700
     55 H22         -7.8950     1.2650     2.8420 hc         1 90E       0.045700
     56 H23         -6.2380     0.7570     2.5190 hc         1 90E       0.045700
@<TRIPOS>BOND
     1     1     2 1   
     2     2     3 1   
     3     2     4 1   
     4     2     8 1   
     5     4     5 1   
     6     4    35 1   
     7     4    36 1   
     8     5     6 1   
     9     5    37 1   
    10     6     7 1   
    11     6    38 1   
    12     6    39 1   
    13     7     8 1   
    14     7    40 1   
    15     7    41 1   
    16     8     9 1   
    17     8    42 1   
    18     9    10 1   
    19     9    43 1   
    20    10    11 2   
    21    10    12 1   
    22    12    13 ar  
    23    12    14 ar  
    24    13    17 ar  
    25    13    44 1   
    26    14    15 ar  
    27    14    45 1   
    28    15    16 ar  
    29    15    46 1   
    30    16    17 ar  
    31    16    47 1   
    32    17    18 1   
    33    18    19 1   
    34    18    48 1   
    35    19    20 1   
    36    19    21 2   
    37    20    23 1   
    38    21    22 1   
    39    22    23 2   
    40    22    49 1   
    41    23    24 1   
    42    24    25 2   
    43    24    26 1   
    44    26    27 1   
    45    26    50 1   
    46    27    28 ar  
    47    27    33 ar  
    48    28    29 1   
    49    28    30 ar  
    50    30    31 ar  
    51    30    51 1   
    52    31    32 ar  
    53    31    52 1   
    54    32    33 ar  
    55    32    53 1   
    56    33    34 1   
    57    34    54 1   
    58    34    55 1   
    59    34    56 1   
@<TRIPOS>SUBSTRUCTURE
     1 90E         1 TEMP              0 ****  ****    0 ROOT
