@<TRIPOS>MOLECULE
90F
   81    86     1     0     0
SMALL
No Charge or Current Charge


@<TRIPOS>ATOM
      1 Cl1        203.6530     0.2360   139.2830 cl         1 90F      -0.172000
      2 CAV        202.2390     1.2420   139.6320 ca         1 90F       0.076000
      3 CAW        201.6590     1.9480   138.5560 ca         1 90F       0.349400
      4 NAX        200.5640     2.7350   138.6750 nb         1 90F      -0.641000
      5 CAY        200.0050     2.8310   139.9040 ca         1 90F       0.349400
      6 CAZ        200.5070     2.1670   141.0430 ca         1 90F       0.076000
      7 Cl2        199.6440     2.3640   142.5710 cl         1 90F      -0.172000
      8 CAT        201.6650     1.3550   140.9300 ca         1 90F      -0.069300
      9 CAS        202.2430     0.6360   142.1670 c3         1 90F       0.225600
     10 CAU        201.9470    -0.8760   142.1640 c3         1 90F      -0.086100
     11 OAJ        203.6730     0.7950   142.2290 os         1 90F      -0.339100
     12 CAA        204.2840     2.0270   142.3610 ca         1 90F       0.092100
     13 CAF        203.5750     3.1940   142.7430 ca         1 90F      -0.102000
     14 CAE        204.3010     4.3910   142.8510 ca         1 90F      -0.214900
     15 CAB        205.6740     2.1020   142.0940 ca         1 90F      -0.077000
     16 CAC        206.3620     3.3330   142.1830 ca         1 90F      -0.119000
     17 CAD        205.6260     4.4620   142.5630 ca         1 90F      -0.044200
     18 NAG        206.0300     5.7800   142.6830 na         1 90F      -0.067400
     19 NAH        204.9360     6.5950   143.0470 nc         1 90F      -0.602100
     20 CAI        203.9210     5.7450   143.1690 cd         1 90F       0.579800
     21 NAK        202.7270     6.2700   143.5310 nu         1 90F      -0.889200
     22 CAL        201.5330     5.7160   144.0520 ca         1 90F       0.125000
     23 CAQ        201.5530     4.7240   145.0680 ca         1 90F       0.023000
     24 CAP        200.3320     4.2260   145.5720 ca         1 90F      -0.199000
     25 NAR        202.7980     4.3150   145.6190 ns         1 90F      -0.156000
     26 CBC        203.1720     3.1750   146.3110 c          1 90F       0.611100
     27 OBE        202.4240     2.2310   146.5350 o          1 90F      -0.580100
     28 CBD        204.6230     3.1860   146.8140 c3         1 90F      -0.159400
     29 CBS        205.5230     2.2230   146.0100 c3         1 90F      -0.087100
     30 CAM        200.2770     6.1840   143.5900 ca         1 90F       0.239000
     31 FBG        200.2180     7.1400   142.6330 f          1 90F      -0.164000
     32 CAN        199.0760     5.6700   144.0950 ca         1 90F      -0.258000
     33 CAO        199.0980     4.6860   145.0890 ca         1 90F       0.379000
     34 NBF        197.9030     4.1620   145.6250 nh         1 90F      -0.808400
     35 CBL        196.6600     4.9710   145.6740 c6         1 90F       0.211800
     36 CBK        195.7620     4.5390   146.8540 c6         1 90F      -0.086400
     37 CBH        197.6450     2.7030   145.5470 c6         1 90F       0.211800
     38 CBI        196.7710     2.2290   146.7280 c6         1 90F      -0.086400
     39 CBJ        195.4280     3.0160   146.8180 c6         1 90F       0.188500
     40 NBM        194.5910     2.5860   147.9990 n3         1 90F      -0.715600
     41 CBN        194.2890     1.1110   147.9940 c6         1 90F       0.126800
     42 CBO        193.3790     0.6820   149.1840 c6         1 90F       0.152100
     43 OBP        192.1620     1.4600   149.1950 os         1 90F      -0.446000
     44 CBQ        192.4200     2.8770   149.3030 c6         1 90F       0.152100
     45 CBR        193.3050     3.3610   148.1160 c6         1 90F       0.126800
     46 H1         202.0880     1.8740   137.5580 h4         1 90F       0.037600
     47 H2         199.1190     3.4590   139.9800 h4         1 90F       0.037600
     48 H3         201.8060     1.0410   143.0870 h1         1 90F       0.066700
     49 H4         202.3530    -1.3460   143.0670 hc         1 90F       0.053700
     50 H5         200.8640    -1.0490   142.1470 hc         1 90F       0.053700
     51 H6         202.3860    -1.3700   141.2910 hc         1 90F       0.053700
     52 H7         202.5100     3.1830   142.9500 ha         1 90F       0.133000
     53 H8         206.2110     1.2040   141.8000 ha         1 90F       0.128000
     54 H9         207.4230     3.3990   141.9550 ha         1 90F       0.122000
     55 H10        206.9660     6.1520   142.5180 hn         1 90F       0.377000
     56 H11        202.6760     7.2470   143.2520 hn         1 90F       0.494000
     57 H12        200.3220     3.5000   146.3760 ha         1 90F       0.143000
     58 H13        203.5460     4.9790   145.4670 hn         1 90F       0.159000
     59 H14        205.0420     4.1970   146.7330 hc         1 90F       0.062700
     60 H15        204.6310     2.8670   147.8630 hc         1 90F       0.062700
     61 H16        206.5420     2.2220   146.4160 hc         1 90F       0.045367
     62 H17        205.1360     1.1970   146.0530 hc         1 90F       0.045367
     63 H18        205.5760     2.5290   144.9600 hc         1 90F       0.045367
     64 H19        198.1370     6.0400   143.7010 ha         1 90F       0.132000
     65 H20        196.1020     4.8630   144.7320 h1         1 90F       0.044200
     66 H21        196.9020     6.0380   145.7950 h1         1 90F       0.044200
     67 H22        196.2580     4.7880   147.8010 hc         1 90F       0.057700
     68 H23        194.8500     5.1450   146.8030 hc         1 90F       0.057700
     69 H24        197.1370     2.4640   144.6010 h1         1 90F       0.044200
     70 H25        198.5880     2.1370   145.5590 h1         1 90F       0.044200
     71 H26        197.3320     2.3400   147.6660 hc         1 90F       0.057700
     72 H27        196.5930     1.1570   146.5880 hc         1 90F       0.057700
     73 H28        194.8650     2.8200   145.8930 h1         1 90F       0.021700
     74 H30        193.7950     0.8250   147.0540 h1         1 90F       0.040450
     75 H31        195.2100     0.5180   148.0720 h1         1 90F       0.040450
     76 H32        193.9120     0.8270   150.1350 h1         1 90F       0.050700
     77 H33        193.1250    -0.3840   149.0950 h1         1 90F       0.050700
     78 H34        192.9260     3.0830   150.2570 h1         1 90F       0.050700
     79 H35        191.4630     3.4180   149.3010 h1         1 90F       0.050700
     80 H36        192.7220     3.2780   147.1870 h1         1 90F       0.040450
     81 H37        193.5000     4.4280   148.2830 h1         1 90F       0.040450
@<TRIPOS>BOND
     1     1     2 1   
     2     2     3 ar  
     3     2     8 ar  
     4     3     4 ar  
     5     3    46 1   
     6     4     5 ar  
     7     5     6 ar  
     8     5    47 1   
     9     6     7 1   
    10     6     8 ar  
    11     8     9 1   
    12     9    10 1   
    13     9    11 1   
    14     9    48 1   
    15    10    49 1   
    16    10    50 1   
    17    10    51 1   
    18    11    12 1   
    19    12    13 ar  
    20    12    15 ar  
    21    13    14 ar  
    22    13    52 1   
    23    14    17 ar  
    24    14    20 1   
    25    15    16 ar  
    26    15    53 1   
    27    16    17 ar  
    28    16    54 1   
    29    17    18 1   
    30    18    19 1   
    31    18    55 1   
    32    19    20 2   
    33    20    21 1   
    34    21    22 1   
    35    21    56 1   
    36    22    23 ar  
    37    22    30 ar  
    38    23    24 ar  
    39    23    25 1   
    40    24    33 ar  
    41    24    57 1   
    42    25    26 1   
    43    25    58 1   
    44    26    27 2   
    45    26    28 1   
    46    28    29 1   
    47    28    59 1   
    48    28    60 1   
    49    29    61 1   
    50    29    62 1   
    51    29    63 1   
    52    30    31 1   
    53    30    32 ar  
    54    32    33 ar  
    55    32    64 1   
    56    33    34 1   
    57    34    35 1   
    58    34    37 1   
    59    35    36 1   
    60    35    65 1   
    61    35    66 1   
    62    36    39 1   
    63    36    67 1   
    64    36    68 1   
    65    37    38 1   
    66    37    69 1   
    67    37    70 1   
    68    38    39 1   
    69    38    71 1   
    70    38    72 1   
    71    39    40 1   
    72    39    73 1   
    73    40    41 1   
    74    40    45 1   
    75    41    42 1   
    76    41    74 1   
    77    41    75 1   
    78    42    43 1   
    79    42    76 1   
    80    42    77 1   
    81    43    44 1   
    82    44    45 1   
    83    44    78 1   
    84    44    79 1   
    85    45    80 1   
    86    45    81 1   
@<TRIPOS>SUBSTRUCTURE
     1 90F         1 TEMP              0 ****  ****    0 ROOT
