@<TRIPOS>MOLECULE
90F
   81    86     1     0     0
SMALL
abcg2


@<TRIPOS>ATOM
      1 CL1        202.9000     1.7450   138.8370 cl         1 90F      -0.172000
      2 CAV        201.5090     2.3650   139.6480 ca         1 90F       0.076000
      3 CAW        200.8320     3.4080   139.0270 ca         1 90F       0.349400
      4 NAX        199.7230     3.9330   139.5170 nb         1 90F      -0.641000
      5 CAY        199.2250     3.4220   140.6300 ca         1 90F       0.349400
      6 CAZ        199.8470     2.3850   141.3080 ca         1 90F       0.076000
      7 CL2        199.0730     1.7630   142.7200 cl         1 90F      -0.172000
      8 CAT        201.0500     1.8450   140.8550 ca         1 90F      -0.069300
      9 CAS        201.7360     0.7440   141.6450 c3         1 90F       0.225600
     10 CAU        201.2600    -0.6160   141.1600 c3         1 90F      -0.086100
     11 OAJ        203.1360     0.7560   141.5430 os         1 90F      -0.339100
     12 CAA        203.8570     1.8230   141.9730 ca         1 90F       0.092100
     13 CAF        203.3390     2.9670   142.5380 ca         1 90F      -0.102000
     14 CAE        204.2390     3.9940   142.8760 ca         1 90F      -0.214900
     15 CAB        205.2520     1.6770   141.7740 ca         1 90F      -0.077000
     16 CAC        206.1420     2.6580   142.1230 ca         1 90F      -0.119000
     17 CAD        205.6180     3.8350   142.6720 ca         1 90F      -0.044200
     18 NAG        206.2060     4.9830   143.0660 na         1 90F      -0.067400
     19 NAH        205.3070     5.8810   143.5090 nc         1 90F      -0.602100
     20 CAI        204.1270     5.3210   143.3950 cd         1 90F       0.579800
     21 NAK        202.9810     6.0270   143.6860 nu         1 90F      -0.889200
     22 CAL        201.8160     5.4080   144.1730 ca         1 90F       0.125000
     23 CAQ        201.7730     4.6820   145.3760 ca         1 90F       0.023000
     24 CAP        200.5910     4.1200   145.8290 ca         1 90F      -0.199000
     25 NAR        202.9550     4.5930   146.1190 ns         1 90F      -0.156000
     26 CBC        203.4160     3.5020   146.7940 c          1 90F       0.611100
     27 OBE        202.7840     2.4700   146.9150 o          1 90F      -0.580100
     28 CBD        204.8160     3.6590   147.3410 c3         1 90F      -0.159400
     29 CBS        205.8260     2.9490   146.4400 c3         1 90F      -0.087100
     30 CAM        200.6210     5.5220   143.4800 ca         1 90F       0.239000
     31 FBG        200.6270     6.1780   142.3110 f          1 90F      -0.164000
     32 CAN        199.4290     4.9790   143.9060 ca         1 90F      -0.258000
     33 CAO        199.3940     4.2590   145.1080 ca         1 90F       0.379000
     34 NBF        198.2200     3.7440   145.6110 nh         1 90F      -0.808400
     35 CBL        196.9520     4.0440   144.9820 c6         1 90F       0.211800
     36 CBK        195.8170     3.9930   145.9970 c6         1 90F      -0.086400
     37 CBH        198.2060     2.4630   146.2970 c6         1 90F       0.211800
     38 CBI        197.1200     2.4010   147.3580 c6         1 90F      -0.086400
     39 CBJ        195.7470     2.6610   146.7430 c6         1 90F       0.188500
     40 NBM        194.6770     2.6850   147.7380 n3         1 90F      -0.715600
     41 CBN        194.7260     1.5820   148.6850 c6         1 90F       0.126800
     42 CBO        193.5990     1.6980   149.6950 c6         1 90F       0.152100
     43 OBP        192.3320     1.7320   149.0820 os         1 90F      -0.446000
     44 CBQ        192.2670     2.7930   148.1590 c6         1 90F       0.152100
     45 CBR        193.3620     2.7050   147.1140 c6         1 90F       0.126800
     46 H1         201.2120     3.8210   138.1000 h4         1 90F       0.037600
     47 H2         198.2990     3.8410   141.0050 h4         1 90F       0.037600
     48 H3         201.4540     0.8660   142.6970 h1         1 90F       0.066700
     49 H4         201.7200    -1.4090   141.7490 hc         1 90F       0.053700
     50 H5         200.1800    -0.6970   141.2710 hc         1 90F       0.053700
     51 H6         201.5080    -0.7670   140.1100 hc         1 90F       0.053700
     52 H7         202.2820     3.0980   142.7230 ha         1 90F       0.133000
     53 H8         205.6130     0.7560   141.3320 ha         1 90F       0.128000
     54 H9         207.2050     2.5270   141.9660 ha         1 90F       0.122000
     55 H10        207.1810     5.2250   143.0380 hn         1 90F       0.377000
     56 H11        203.1370     6.9860   143.9640 hn         1 90F       0.494000
     57 H12        200.5860     3.6270   146.7870 ha         1 90F       0.143000
     58 H13        203.6010     5.3610   146.0140 hn         1 90F       0.159000
     59 H14        205.0860     4.7110   147.4450 hc         1 90F       0.062700
     60 H15        204.8380     3.2200   148.3400 hc         1 90F       0.062700
     61 H16        206.8290     3.0390   146.8530 hc         1 90F       0.045367
     62 H17        205.5950     1.8890   146.3450 hc         1 90F       0.045367
     63 H18        205.8360     3.3840   145.4400 hc         1 90F       0.045367
     64 H19        198.5570     5.0930   143.2790 ha         1 90F       0.132000
     65 H20        196.7460     3.3530   144.1520 h1         1 90F       0.044200
     66 H21        196.9790     5.0490   144.5640 h1         1 90F       0.044200
     67 H22        195.9530     4.7950   146.7280 hc         1 90F       0.057700
     68 H23        194.8930     4.2010   145.4570 hc         1 90F       0.057700
     69 H24        198.0390     1.6540   145.5700 h1         1 90F       0.044200
     70 H25        199.1690     2.2670   146.7610 h1         1 90F       0.044200
     71 H26        197.3230     3.1380   148.1410 hc         1 90F       0.057700
     72 H27        197.1720     1.4110   147.8140 hc         1 90F       0.057700
     73 H28        195.5630     1.8560   146.0050 h1         1 90F       0.021700
     74 H30        194.6720     0.6020   148.1800 h1         1 90F       0.040450
     75 H31        195.6600     1.6050   149.2460 h1         1 90F       0.040450
     76 H32        193.7550     2.6020   150.3030 h1         1 90F       0.050700
     77 H33        193.6180     0.8380   150.3650 h1         1 90F       0.050700
     78 H34        192.3410     3.7590   148.6800 h1         1 90F       0.050700
     79 H35        191.2910     2.7490   147.6750 h1         1 90F       0.050700
     80 H36        193.2040     1.8110   146.4860 h1         1 90F       0.040450
     81 H37        193.2620     3.5730   146.4620 h1         1 90F       0.040450
@<TRIPOS>BOND
     1     1     2 1   
     2     2     3 ar  
     3     2     8 ar  
     4     3     4 ar  
     5     3    46 1   
     6     4     5 ar  
     7     5     6 ar  
     8     5    47 1   
     9     6     7 1   
    10     6     8 ar  
    11     8     9 1   
    12     9    10 1   
    13     9    11 1   
    14     9    48 1   
    15    10    49 1   
    16    10    50 1   
    17    10    51 1   
    18    11    12 1   
    19    12    13 ar  
    20    12    15 ar  
    21    13    14 ar  
    22    13    52 1   
    23    14    17 ar  
    24    14    20 1   
    25    15    16 ar  
    26    15    53 1   
    27    16    17 ar  
    28    16    54 1   
    29    17    18 1   
    30    18    19 1   
    31    18    55 1   
    32    19    20 2   
    33    20    21 1   
    34    21    22 1   
    35    21    56 1   
    36    22    23 ar  
    37    22    30 ar  
    38    23    24 ar  
    39    23    25 1   
    40    24    33 ar  
    41    24    57 1   
    42    25    26 1   
    43    25    58 1   
    44    26    27 2   
    45    26    28 1   
    46    28    29 1   
    47    28    59 1   
    48    28    60 1   
    49    29    61 1   
    50    29    62 1   
    51    29    63 1   
    52    30    31 1   
    53    30    32 ar  
    54    32    33 ar  
    55    32    64 1   
    56    33    34 1   
    57    34    35 1   
    58    34    37 1   
    59    35    36 1   
    60    35    65 1   
    61    35    66 1   
    62    36    39 1   
    63    36    67 1   
    64    36    68 1   
    65    37    38 1   
    66    37    69 1   
    67    37    70 1   
    68    38    39 1   
    69    38    71 1   
    70    38    72 1   
    71    39    40 1   
    72    39    73 1   
    73    40    41 1   
    74    40    45 1   
    75    41    42 1   
    76    41    74 1   
    77    41    75 1   
    78    42    43 1   
    79    42    76 1   
    80    42    77 1   
    81    43    44 1   
    82    44    45 1   
    83    44    78 1   
    84    44    79 1   
    85    45    80 1   
    86    45    81 1   
@<TRIPOS>SUBSTRUCTURE
     1 90F         1 TEMP              0 ****  ****    0 ROOT
