@<TRIPOS>MOLECULE
90G
   27    28     1     0     0
SMALL
No Charge or Current Charge


@<TRIPOS>ATOM
      1 O15          3.2190    -1.3110     0.0900 o          1 90G      -0.528100
      2 C14          3.8030    -0.2370     0.0250 c          1 90G       0.625100
      3 C16          5.3420    -0.1150     0.0120 c3         1 90G      -0.038400
      4 S17          6.2330    -1.7560     0.1060 sh         1 90G      -0.340800
      5 N13          3.1470     0.9830    -0.0450 ns         1 90G      -0.403100
      6 C10          1.7800     1.2450    -0.0550 cc         1 90G      -0.002400
      7 C9           0.7350     0.3700     0.0060 cd         1 90G      -0.217000
      8 N11          1.1690     2.4900    -0.1270 na         1 90G      -0.036200
      9 N12         -0.2160     2.4250    -0.1120 nc         1 90G      -0.515800
     10 C8          -0.4610     1.1250    -0.0340 cd         1 90G       0.320500
     11 C3          -1.8440     0.5940     0.0110 ca         1 90G      -0.115500
     12 C2          -2.9510     1.4660     0.1520 ca         1 90G      -0.081500
     13 C4          -2.0910    -0.7920    -0.1210 ca         1 90G      -0.081500
     14 C5          -3.4050    -1.2930    -0.0950 ca         1 90G      -0.109500
     15 C6          -4.4890    -0.4160     0.0560 ca         1 90G       0.124000
     16 Cl0         -6.1310    -1.0450     0.0880 cl         1 90G      -0.206000
     17 C1          -4.2630     0.9620     0.1780 ca         1 90G      -0.109500
     18 H1           5.6360     0.3990    -0.9110 h1         1 90G       0.077700
     19 H2           5.6420     0.5040     0.8660 h1         1 90G       0.077700
     20 H3           7.4910    -1.2520     0.0720 hs         1 90G       0.187800
     21 H4           3.7740     1.7770    -0.0950 hn         1 90G       0.320500
     22 H5           0.8010    -0.7070     0.0780 ha         1 90G       0.171000
     23 H6           1.6510     3.3860    -0.1830 hn         1 90G       0.368000
     24 H7          -2.8010     2.5390     0.2470 ha         1 90G       0.127500
     25 H8          -1.2710    -1.4940    -0.2500 ha         1 90G       0.127500
     26 H9          -3.5820    -2.3610    -0.1950 ha         1 90G       0.129000
     27 H10         -5.1050     1.6410     0.2910 ha         1 90G       0.129000
@<TRIPOS>BOND
     1     1     2 2   
     2     2     3 1   
     3     2     5 1   
     4     3     4 1   
     5     3    18 1   
     6     3    19 1   
     7     4    20 1   
     8     5     6 1   
     9     5    21 1   
    10     6     7 2   
    11     6     8 1   
    12     7    10 1   
    13     7    22 1   
    14     8     9 1   
    15     8    23 1   
    16     9    10 2   
    17    10    11 1   
    18    11    12 ar  
    19    11    13 ar  
    20    12    17 ar  
    21    12    24 1   
    22    13    14 ar  
    23    13    25 1   
    24    14    15 ar  
    25    14    26 1   
    26    15    16 1   
    27    15    17 ar  
    28    17    27 1   
@<TRIPOS>SUBSTRUCTURE
     1 90G         1 TEMP              0 ****  ****    0 ROOT
