@<TRIPOS>MOLECULE
90G
   27    28     1     0     0
SMALL
bcc


@<TRIPOS>ATOM
      1 O15          3.2820    -1.2510     0.0600 o          1 90G      -0.528100
      2 C14          3.8200    -0.1660     0.0020 c          1 90G       0.692100
      3 C16          5.3200     0.0030    -0.0470 c3         1 90G      -0.086300
      4 S17          6.0810    -1.6390     0.0730 sh         1 90G      -0.292900
      5 N13          3.1390     1.0100    -0.0270 ns         1 90G      -0.470100
      6 C10          1.7640     1.1260    -0.0080 cc         1 90G       0.048300
      7 C9           0.7380     0.2050    -0.0010 cd         1 90G      -0.300300
      8 N11          1.1880     2.3430     0.0050 na         1 90G      -0.036600
      9 N12         -0.1410     2.2850     0.0160 nc         1 90G      -0.515800
     10 C8          -0.4310     0.9960     0.0120 cd         1 90G       0.385800
     11 C3          -1.8220     0.5370     0.0180 ca         1 90G      -0.115500
     12 C2          -2.8780     1.4480     0.0660 ca         1 90G      -0.099500
     13 C4          -2.1240    -0.8240    -0.0280 ca         1 90G      -0.099500
     14 C5          -3.4360    -1.2690    -0.0270 ca         1 90G      -0.127500
     15 C6          -4.4640    -0.3420     0.0220 ca         1 90G       0.032400
     16 CL0         -6.1090    -0.8880     0.0240 cl         1 90G      -0.114400
     17 C1          -4.1940     1.0180     0.0690 ca         1 90G      -0.127500
     18 H1           5.6020     0.4900    -0.9820 h1         1 90G       0.077700
     19 H2           5.6510     0.6440     0.7720 h1         1 90G       0.077700
     20 H3           7.3420    -1.1970     0.0270 hs         1 90G       0.187800
     21 H4           3.6750     1.8650    -0.0710 hn         1 90G       0.320500
     22 H5           0.8170    -0.8660    -0.0060 ha         1 90G       0.189000
     23 H6           1.6480     3.2400     0.0050 hn         1 90G       0.317700
     24 H7          -2.6750     2.5100     0.1030 ha         1 90G       0.145500
     25 H8          -1.3310    -1.5590    -0.0670 ha         1 90G       0.145500
     26 H9          -3.6490    -2.3290    -0.0640 ha         1 90G       0.147000
     27 H10         -5.0000     1.7380     0.1070 ha         1 90G       0.147000
@<TRIPOS>BOND
     1     1     2 2   
     2     2     3 1   
     3     2     5 1   
     4     3     4 1   
     5     3    18 1   
     6     3    19 1   
     7     4    20 1   
     8     5     6 1   
     9     5    21 1   
    10     6     7 2   
    11     6     8 1   
    12     7    10 1   
    13     7    22 1   
    14     8     9 1   
    15     8    23 1   
    16     9    10 2   
    17    10    11 1   
    18    11    12 ar  
    19    11    13 ar  
    20    12    17 ar  
    21    12    24 1   
    22    13    14 ar  
    23    13    25 1   
    24    14    15 ar  
    25    14    26 1   
    26    15    16 1   
    27    15    17 ar  
    28    17    27 1   
@<TRIPOS>SUBSTRUCTURE
     1 90G         1 TEMP              0 ****  ****    0 ROOT
