@<TRIPOS>MOLECULE
90H
   77    79     1     0     0
SMALL
bcc


@<TRIPOS>ATOM
      1 N1          19.7340    15.9950    27.3330 n          1 90H      -0.455800
      2 N3          18.1930    13.8720    24.8720 ns         1 90H      -0.579900
      3 C4          20.6580    17.5150    25.8020 cx         1 90H      -0.123700
      4 C5          19.3960    18.2920    25.5580 cx         1 90H      -0.070000
      5 C6          18.5060    18.7660    26.6830 c3         1 90H      -0.066600
      6 C7          19.4550    19.2760    24.4110 c3         1 90H      -0.066600
      7 C8          20.8820    16.8830    27.1510 c5         1 90H       0.131000
      8 C10         20.2000    15.5610    29.7180 c3         1 90H       0.043700
      9 C13         21.9300    13.8930    29.0600 c3         1 90H      -0.091767
     10 C15         19.0700    17.3410    30.9280 c          1 90H       0.614100
     11 C17         18.2030    12.5560    24.2670 c3         1 90H       0.073700
     12 C20         19.7200     9.6770    21.1940 c3         1 90H       0.093300
     13 C21         17.1110    11.6750    24.8690 c3         1 90H      -0.076400
     14 C22         17.1890    11.5790    26.3850 c5         1 90H      -0.156700
     15 C24         18.0110    10.3160    28.2620 c5         1 90H       0.100000
     16 C1          19.2350    14.4080    25.5360 c          1 90H       0.662100
     17 C2          18.9650    15.7930    26.1190 c5         1 90H       0.055700
     18 C3          19.4800    16.8450    25.1600 cx         1 90H      -0.139700
     19 C9          19.3930    15.3150    28.4390 c          1 90H       0.663100
     20 C11         21.0030    14.3250    30.1970 c3         1 90H      -0.043000
     21 C12         20.1270    13.1410    30.6080 c3         1 90H      -0.091767
     22 C14         21.8520    14.7550    31.3950 c3         1 90H      -0.091767
     23 N2          19.2750    16.0410    30.7270 ns         1 90H      -0.537900
     24 C16         18.0040    17.7030    31.9740 c3         1 90H       0.586900
     25 F1          18.5140    18.5440    32.8710 f          1 90H      -0.222300
     26 F2          16.9850    18.3150    31.3690 f          1 90H      -0.222300
     27 F3          17.5150    16.6500    32.6310 f          1 90H      -0.222300
     28 O2          19.6290    18.2600    30.3640 o          1 90H      -0.554100
     29 O3          18.4390    14.5490    28.4520 o          1 90H      -0.615100
     30 C18         18.0600    12.7160    22.7370 c3         1 90H       0.051100
     31 O4          19.0500    13.5640    22.2190 oh         1 90H      -0.595800
     32 C19         18.1810    11.3610    22.0490 c          1 90H       0.671100
     33 N4          19.4300    10.9500    21.8100 ns         1 90H      -0.558900
     34 O5          17.1910    10.6930    21.7830 o          1 90H      -0.599100
     35 C23         18.4670    10.9630    26.9530 c5         1 90H      -0.090400
     36 N5          16.6250    10.0060    27.9850 ns         1 90H      -0.581900
     37 C25         16.0900    10.6990    26.9650 c          1 90H       0.706500
     38 O6          14.9330    10.6440    26.5830 o          1 90H      -0.628500
     39 H1          17.3040    14.3500    24.9210 hn         1 90H       0.318500
     40 H2          21.5420    17.7640    25.2280 hc         1 90H       0.102700
     41 H3          18.4210    18.0660    27.5110 hc         1 90H       0.043867
     42 H4          18.8810    19.7070    27.0900 hc         1 90H       0.043867
     43 H5          17.4980    18.9530    26.3080 hc         1 90H       0.043867
     44 H6          19.8410    20.2390    24.7500 hc         1 90H       0.043867
     45 H7          20.1000    18.9250    23.6040 hc         1 90H       0.043867
     46 H8          18.4600    19.4430    23.9930 hc         1 90H       0.043867
     47 H9          21.8190    16.3210    27.1480 h1         1 90H       0.065200
     48 H10         20.9340    17.6220    27.9510 h1         1 90H       0.065200
     49 H11         20.9300    16.3530    29.5640 h1         1 90H       0.087700
     50 H12         22.5650    13.0700    29.3910 hc         1 90H       0.043033
     51 H13         21.3780    13.5430    28.1860 hc         1 90H       0.043033
     52 H14         22.5840    14.7080    28.7440 hc         1 90H       0.043033
     53 H15         19.1830    12.1220    24.4740 h1         1 90H       0.089700
     54 H16         20.7980     9.5600    21.1370 h1         1 90H       0.041033
     55 H17         19.3160     8.8510    21.7790 h1         1 90H       0.041033
     56 H18         19.3130     9.6120    20.1840 h1         1 90H       0.041033
     57 H19         16.1290    12.0580    24.5780 hc         1 90H       0.073200
     58 H20         17.1940    10.6710    24.4490 hc         1 90H       0.073200
     59 H21         17.0410    12.5740    26.8250 hc         1 90H       0.086700
     60 H22         18.5740     9.4150    28.5050 h1         1 90H       0.043700
     61 H23         18.1000    11.0060    29.1060 h1         1 90H       0.043700
     62 H24         17.8970    15.9150    26.3280 h1         1 90H       0.087700
     63 H25         19.4730    16.5990    24.1030 hc         1 90H       0.097700
     64 H26         19.4260    13.3860    31.4090 hc         1 90H       0.043033
     65 H27         19.5590    12.7370    29.7730 hc         1 90H       0.043033
     66 H28         20.7650    12.3420    30.9910 hc         1 90H       0.043033
     67 H29         21.2400    15.0640    32.2440 hc         1 90H       0.043033
     68 H30         22.4750    13.9230    31.7260 hc         1 90H       0.043033
     69 H31         22.5150    15.5850    31.1400 hc         1 90H       0.043033
     70 H32         18.7090    15.3630    31.2130 hn         1 90H       0.348500
     71 H33         17.0510    13.0950    22.5210 h1         1 90H       0.065700
     72 H34         18.9940    14.4120    22.6740 ho         1 90H       0.418000
     73 H35         20.1940    11.5780    22.0030 hn         1 90H       0.334500
     74 H36         18.8440    10.1950    26.2730 hc         1 90H       0.061700
     75 H37         19.2640    11.6880    27.1110 hc         1 90H       0.061700
     76 H38         16.0610     9.4390    28.5980 hn         1 90H       0.326500
     77 O1          20.3310    13.8840    25.6320 o          1 90H      -0.594100
@<TRIPOS>BOND
     1     1     7 1   
     2     1    17 1   
     3     1    19 1   
     4     2    11 1   
     5     2    16 1   
     6     2    39 1   
     7     3     4 1   
     8     3     7 1   
     9     3    18 1   
    10     3    40 1   
    11     4     5 1   
    12     4     6 1   
    13     4    18 1   
    14     5    41 1   
    15     5    42 1   
    16     5    43 1   
    17     6    44 1   
    18     6    45 1   
    19     6    46 1   
    20     7    47 1   
    21     7    48 1   
    22     8    19 1   
    23     8    20 1   
    24     8    23 1   
    25     8    49 1   
    26     9    20 1   
    27     9    50 1   
    28     9    51 1   
    29     9    52 1   
    30    10    23 1   
    31    10    24 1   
    32    10    28 2   
    33    11    13 1   
    34    11    30 1   
    35    11    53 1   
    36    12    33 1   
    37    12    54 1   
    38    12    55 1   
    39    12    56 1   
    40    13    14 1   
    41    13    57 1   
    42    13    58 1   
    43    14    35 1   
    44    14    37 1   
    45    14    59 1   
    46    15    35 1   
    47    15    36 1   
    48    15    60 1   
    49    15    61 1   
    50    16    17 1   
    51    16    77 2   
    52    17    18 1   
    53    17    62 1   
    54    18    63 1   
    55    19    29 2   
    56    20    21 1   
    57    20    22 1   
    58    21    64 1   
    59    21    65 1   
    60    21    66 1   
    61    22    67 1   
    62    22    68 1   
    63    22    69 1   
    64    23    70 1   
    65    24    25 1   
    66    24    26 1   
    67    24    27 1   
    68    30    31 1   
    69    30    32 1   
    70    30    71 1   
    71    31    72 1   
    72    32    33 1   
    73    32    34 2   
    74    33    73 1   
    75    35    74 1   
    76    35    75 1   
    77    36    37 1   
    78    36    76 1   
    79    37    38 2   
@<TRIPOS>SUBSTRUCTURE
     1 90H         1 TEMP              0 ****  ****    0 ROOT
