@<TRIPOS>MOLECULE
90H
   77    79     1     0     0
SMALL
No Charge or Current Charge


@<TRIPOS>ATOM
      1 N1          19.8550    16.0530    27.2790 n          1 90H      -0.388800
      2 N3          18.4560    13.8830    24.6340 ns         1 90H      -0.512900
      3 C4          20.6540    17.7140    25.7670 cx         1 90H      -0.123700
      4 C5          19.3300    18.2310    25.2220 cx         1 90H      -0.070000
      5 C6          18.1590    18.6290    26.1370 c3         1 90H      -0.066600
      6 C7          19.3720    19.1680    24.0160 c3         1 90H      -0.066600
      7 C8          20.6890    17.2810    27.2380 c5         1 90H       0.131000
      8 C10         20.1680    15.7070    29.8150 c3         1 90H       0.043700
      9 C13         22.3920    14.7230    28.9410 c3         1 90H      -0.091767
     10 C15         19.2290    16.6320    32.0000 c          1 90H       0.547100
     11 C17         18.2520    12.4980    24.1700 c3         1 90H       0.073700
     12 C20         19.8640     9.1520    21.2120 c3         1 90H       0.093300
     13 C21         16.9600    11.9160    24.8090 c3         1 90H      -0.076400
     14 C22         16.8910    11.9960    26.3630 c5         1 90H      -0.156700
     15 C24         17.3520    11.0820    28.5350 c5         1 90H       0.100000
     16 C1          19.4490    14.2740    25.5140 c          1 90H       0.595100
     17 C2          19.1770    15.7370    25.9850 c5         1 90H       0.055700
     18 C3          19.7470    16.7830    25.0080 cx         1 90H      -0.139700
     19 C9          19.3510    15.5280    28.4900 c          1 90H       0.596100
     20 C11         21.2880    14.6130    30.0270 c3         1 90H      -0.043000
     21 C12         20.6830    13.1810    29.9720 c3         1 90H      -0.091767
     22 C14         21.9770    14.8010    31.4100 c3         1 90H      -0.091767
     23 N2          19.2050    15.7350    30.9450 ns         1 90H      -0.470900
     24 C16         18.1070    16.4330    33.0580 c3         1 90H       0.223000
     25 F1          18.1920    17.3320    34.0680 f          1 90H      -0.101000
     26 F2          16.8780    16.5670    32.5040 f          1 90H      -0.101000
     27 F3          18.1680    15.1990    33.6130 f          1 90H      -0.101000
     28 O2          20.0780    17.5130    32.0730 o          1 90H      -0.554100
     29 O3          18.2980    14.8950    28.4860 o          1 90H      -0.615100
     30 C18         18.2790    12.4130    22.6140 c3         1 90H       0.074300
     31 O4          19.3870    13.2080    22.1090 oh         1 90H      -0.658000
     32 C19         18.3260    10.9370    22.1030 c          1 90H       0.604100
     33 N4          19.5760    10.4880    21.7350 ns         1 90H      -0.491900
     34 O5          17.3310    10.2340    21.9850 o          1 90H      -0.599100
     35 C23         17.9860    11.1940    27.1220 c5         1 90H      -0.090400
     36 N5          15.9450    10.9120    28.1800 ns         1 90H      -0.514900
     37 C25         15.5970    11.4310    26.9630 c          1 90H       0.564000
     38 O6          14.5160    11.2280    26.4340 o          1 90H      -0.553000
     39 H1          17.7280    14.5630    24.4420 hn         1 90H       0.318500
     40 H2          21.5710    18.0570    25.2910 hc         1 90H       0.102700
     41 H3          18.0630    18.0100    27.0340 hc         1 90H       0.043867
     42 H4          18.2690    19.6660    26.4750 hc         1 90H       0.043867
     43 H5          17.2060    18.5580    25.5970 hc         1 90H       0.043867
     44 H6          19.5100    20.2100    24.3310 hc         1 90H       0.043867
     45 H7          20.1960    18.9170    23.3370 hc         1 90H       0.043867
     46 H8          18.4400    19.1100    23.4390 hc         1 90H       0.043867
     47 H9          21.7150    17.0650    27.5580 h1         1 90H       0.065200
     48 H10         20.2970    18.0580    27.9090 h1         1 90H       0.065200
     49 H11         20.6550    16.6870    29.7660 h1         1 90H       0.087700
     50 H12         23.1780    13.9770    29.1080 hc         1 90H       0.043033
     51 H13         21.9910    14.5500    27.9370 hc         1 90H       0.043033
     52 H14         22.8660    15.7120    28.9620 hc         1 90H       0.043033
     53 H15         19.0910    11.8870    24.5320 h1         1 90H       0.089700
     54 H16         20.9400     9.0600    21.0150 h1         1 90H       0.041033
     55 H17         19.5650     8.3940    21.9480 h1         1 90H       0.041033
     56 H18         19.3100     8.9930    20.2780 h1         1 90H       0.041033
     57 H19         16.0960    12.4440    24.3840 hc         1 90H       0.073200
     58 H20         16.8500    10.8680    24.5090 hc         1 90H       0.073200
     59 H21         16.9510    13.0410    26.6890 hc         1 90H       0.086700
     60 H22         17.7570    10.2330    29.1020 h1         1 90H       0.043700
     61 H23         17.5090    11.9990    29.1190 h1         1 90H       0.043700
     62 H24         18.0890    15.8410    26.0910 h1         1 90H       0.087700
     63 H25         20.0350    16.4810    24.0030 hc         1 90H       0.097700
     64 H26         19.8900    13.0530    30.7180 hc         1 90H       0.043033
     65 H27         20.2600    12.9640    28.9840 hc         1 90H       0.043033
     66 H28         21.4530    12.4250    30.1710 hc         1 90H       0.043033
     67 H29         21.2810    14.6200    32.2370 hc         1 90H       0.043033
     68 H30         22.8120    14.1000    31.5310 hc         1 90H       0.043033
     69 H31         22.3760    15.8170    31.5140 hc         1 90H       0.043033
     70 H32         18.4440    15.0640    30.9320 hn         1 90H       0.348500
     71 H33         17.3370    12.8350    22.2380 h1         1 90H       0.065700
     72 H34         19.4520    13.9940    22.6950 ho         1 90H       0.457000
     73 H35         20.3250    11.1690    21.8090 hn         1 90H       0.334500
     74 H36         18.1300    10.2000    26.6810 hc         1 90H       0.061700
     75 H37         18.9600    11.6920    27.1400 hc         1 90H       0.061700
     76 H38         15.2500    10.4030    28.7150 hn         1 90H       0.326500
     77 O1          20.3900    13.5550    25.8260 o          1 90H      -0.594100
@<TRIPOS>BOND
     1     1     7 1   
     2     1    17 1   
     3     1    19 1   
     4     2    11 1   
     5     2    16 1   
     6     2    39 1   
     7     3     4 1   
     8     3     7 1   
     9     3    18 1   
    10     3    40 1   
    11     4     5 1   
    12     4     6 1   
    13     4    18 1   
    14     5    41 1   
    15     5    42 1   
    16     5    43 1   
    17     6    44 1   
    18     6    45 1   
    19     6    46 1   
    20     7    47 1   
    21     7    48 1   
    22     8    19 1   
    23     8    20 1   
    24     8    23 1   
    25     8    49 1   
    26     9    20 1   
    27     9    50 1   
    28     9    51 1   
    29     9    52 1   
    30    10    23 1   
    31    10    24 1   
    32    10    28 2   
    33    11    13 1   
    34    11    30 1   
    35    11    53 1   
    36    12    33 1   
    37    12    54 1   
    38    12    55 1   
    39    12    56 1   
    40    13    14 1   
    41    13    57 1   
    42    13    58 1   
    43    14    35 1   
    44    14    37 1   
    45    14    59 1   
    46    15    35 1   
    47    15    36 1   
    48    15    60 1   
    49    15    61 1   
    50    16    17 1   
    51    16    77 2   
    52    17    18 1   
    53    17    62 1   
    54    18    63 1   
    55    19    29 2   
    56    20    21 1   
    57    20    22 1   
    58    21    64 1   
    59    21    65 1   
    60    21    66 1   
    61    22    67 1   
    62    22    68 1   
    63    22    69 1   
    64    23    70 1   
    65    24    25 1   
    66    24    26 1   
    67    24    27 1   
    68    30    31 1   
    69    30    32 1   
    70    30    71 1   
    71    31    72 1   
    72    32    33 1   
    73    32    34 2   
    74    33    73 1   
    75    35    74 1   
    76    35    75 1   
    77    36    37 1   
    78    36    76 1   
    79    37    38 2   
@<TRIPOS>SUBSTRUCTURE
     1 90H         1 TEMP              0 ****  ****    0 ROOT
