@<TRIPOS>MOLECULE
90I
   75    78     1     0     0
SMALL
No Charge or Current Charge


@<TRIPOS>ATOM
      1 C5          21.4060     7.8730   -36.2240 ca         1 90I      -0.098000
      2 C4          20.1640     7.2550   -35.9970 ca         1 90I      -0.116000
      3 C3          19.8090     6.8430   -34.7010 ca         1 90I      -0.084500
      4 C2          20.6940     7.0470   -33.6230 ca         1 90I      -0.101300
      5 C6          22.2930     8.0770   -35.1540 ca         1 90I      -0.116000
      6 C1          20.3100     6.6000   -32.2190 c3         1 90I       0.230900
      7 C15         19.2820     4.8170   -25.9570 c5         1 90I      -0.152700
      8 C18         18.0410     5.4450   -25.3100 c          1 90I       0.562000
      9 C14         19.8790     3.6230   -25.1560 c3         1 90I      -0.073400
     10 C28         25.8570     5.0400   -24.3650 ca         1 90I      -0.110500
     11 C27         26.0540     5.7700   -25.5500 ca         1 90I      -0.105500
     12 C26         25.0270     6.5880   -26.0510 ca         1 90I      -0.109000
     13 C25         23.8050     6.6770   -25.3650 ca         1 90I      -0.105500
     14 C24         23.6070     5.9440   -24.1820 ca         1 90I      -0.110500
     15 C23         24.6300     5.1190   -23.6760 ca         1 90I      -0.082300
     16 C22         24.4130     4.3180   -22.3940 c3         1 90I      -0.056100
     17 N           20.9600     3.3240   -30.8030 n          1 90I      -0.396800
     18 C           20.5000     4.6510   -30.8370 c          1 90I       0.653100
     19 O           19.9120     5.1860   -29.9080 o          1 90I      -0.560000
     20 C10         21.7320     1.2450   -30.0010 c5         1 90I      -0.086400
     21 C11         20.8660     2.4730   -29.5850 c5         1 90I       0.042700
     22 C12         21.4800     3.0970   -28.2900 c          1 90I       0.610100
     23 C13         21.1240     2.9440   -25.7930 c3         1 90I       0.119700
     24 C16         20.2220     6.0410   -26.1280 c5         1 90I      -0.090400
     25 C17         19.2040     7.1560   -26.4910 c5         1 90I       0.099000
     26 C19         21.6410     1.7200   -24.9720 c3         1 90I       0.066300
     27 C20         22.3090     2.1820   -23.6400 c          1 90I       0.562100
     28 C21         24.5280     2.7920   -22.6030 c3         1 90I       0.109000
     29 C7          21.9390     7.6650   -33.8570 ca         1 90I      -0.084500
     30 C8          21.5910     2.6440   -31.9520 c5         1 90I       0.121000
     31 C9          21.4710     1.1590   -31.5250 c5         1 90I      -0.097400
     32 N1          20.8370     2.5730   -27.1870 ns         1 90I      -0.495900
     33 N2          18.0790     6.7730   -25.6400 ns         1 90I      -0.514900
     34 N3          23.6790     2.3100   -23.6950 ns         1 90I      -0.494900
     35 O1          20.7470     5.2440   -32.0420 os         1 90I      -0.449100
     36 O2          17.2810     4.9870   -24.4720 o          1 90I      -0.558000
     37 O3          21.6810     2.3640   -22.6050 o          1 90I      -0.602100
     38 O4          22.5350     0.8960   -25.7770 oh         1 90I      -0.649000
     39 O5          22.3790     3.9280   -28.2200 o          1 90I      -0.586100
     40 H5          21.6800     8.1920   -37.2270 ha         1 90I       0.113000
     41 H41         19.4770     7.0950   -36.8250 ha         1 90I       0.114500
     42 H31         18.8470     6.3620   -34.5340 ha         1 90I       0.115000
     43 H6          23.2550     8.5540   -35.3290 ha         1 90I       0.114500
     44 H11         20.7830     7.2610   -31.4800 h1         1 90I       0.055700
     45 H12         19.2220     6.6780   -32.0930 h1         1 90I       0.055700
     46 H18         18.9760     4.4850   -26.9560 hc         1 90I       0.086700
     47 H16         20.1380     3.9670   -24.1470 hc         1 90I       0.070200
     48 H17         19.1010     2.8600   -25.0240 hc         1 90I       0.070200
     49 H28         27.0020     5.7030   -26.0790 ha         1 90I       0.113500
     50 H27         25.1800     7.1540   -26.9670 ha         1 90I       0.113000
     51 H26         23.0130     7.3150   -25.7500 ha         1 90I       0.113500
     52 H25         22.6570     6.0190   -23.6580 ha         1 90I       0.109000
     53 H24         25.1430     4.6240   -21.6350 hc         1 90I       0.060700
     54 H23         23.4260     4.5380   -21.9690 hc         1 90I       0.060700
     55 H10         21.4460     0.3310   -29.4680 hc         1 90I       0.064200
     56 H13         22.7970     1.4170   -29.8010 hc         1 90I       0.064200
     57 H14         19.8200     2.1910   -29.4030 h1         1 90I       0.063700
     58 H15         21.9320     3.6880   -25.7970 h1         1 90I       0.094700
     59 H2A         20.7350     6.2810   -25.1900 hc         1 90I       0.063700
     60 H19         20.9860     5.9030   -26.9010 hc         1 90I       0.063700
     61 H2C         19.5910     8.1580   -26.2640 h1         1 90I       0.046200
     62 H2B         18.9300     7.1200   -27.5550 h1         1 90I       0.046200
     63 H21         24.2560     2.2710   -21.6760 h1         1 90I       0.053200
     64 H22         25.5690     2.5350   -22.8380 h1         1 90I       0.053200
     65 H7          22.6330     7.8240   -33.0340 ha         1 90I       0.115000
     66 H82         22.6390     2.9540   -32.0580 h1         1 90I       0.059700
     67 H81         21.0690     2.8380   -32.8990 h1         1 90I       0.059700
     68 H91         20.4670     0.7700   -31.7330 hc         1 90I       0.055700
     69 H92         22.1880     0.5150   -32.0450 hc         1 90I       0.055700
     70 H93         20.1350     1.8650   -27.3590 hn         1 90I       0.311500
     71 H94         17.3920     7.4000   -25.2370 hn         1 90I       0.324500
     72 H32         24.1050     2.1100   -24.5940 hn         1 90I       0.335500
     73 H1          20.7680     1.1180   -24.6870 h1         1 90I       0.059700
     74 H42         22.6200     0.0220   -25.3330 ho         1 90I       0.449000
     75 H29         26.6590     4.4120   -23.9850 ha         1 90I       0.109000
@<TRIPOS>BOND
     1     1     2 ar  
     2     1     5 ar  
     3     1    40 1   
     4     2     3 ar  
     5     2    41 1   
     6     3     4 ar  
     7     3    42 1   
     8     4     6 1   
     9     4    29 ar  
    10     5    29 ar  
    11     5    43 1   
    12     6    35 1   
    13     6    44 1   
    14     6    45 1   
    15     7     8 1   
    16     7     9 1   
    17     7    24 1   
    18     7    46 1   
    19     8    33 1   
    20     8    36 2   
    21     9    23 1   
    22     9    47 1   
    23     9    48 1   
    24    10    11 ar  
    25    10    15 ar  
    26    10    75 1   
    27    11    12 ar  
    28    11    49 1   
    29    12    13 ar  
    30    12    50 1   
    31    13    14 ar  
    32    13    51 1   
    33    14    15 ar  
    34    14    52 1   
    35    15    16 1   
    36    16    28 1   
    37    16    53 1   
    38    16    54 1   
    39    17    18 1   
    40    17    21 1   
    41    17    30 1   
    42    18    19 2   
    43    18    35 1   
    44    20    21 1   
    45    20    31 1   
    46    20    55 1   
    47    20    56 1   
    48    21    22 1   
    49    21    57 1   
    50    22    32 1   
    51    22    39 2   
    52    23    26 1   
    53    23    32 1   
    54    23    58 1   
    55    24    25 1   
    56    24    59 1   
    57    24    60 1   
    58    25    33 1   
    59    25    61 1   
    60    25    62 1   
    61    26    27 1   
    62    26    38 1   
    63    26    73 1   
    64    27    34 1   
    65    27    37 2   
    66    28    34 1   
    67    28    63 1   
    68    28    64 1   
    69    29    65 1   
    70    30    31 1   
    71    30    66 1   
    72    30    67 1   
    73    31    68 1   
    74    31    69 1   
    75    32    70 1   
    76    33    71 1   
    77    34    72 1   
    78    38    74 1   
@<TRIPOS>SUBSTRUCTURE
     1 90I         1 TEMP              0 ****  ****    0 ROOT
