@<TRIPOS>MOLECULE
90I
   75    78     1     0     0
SMALL
bcc


@<TRIPOS>ATOM
      1 C5          21.2980     7.7940   -36.0160 ca         1 90I      -0.116000
      2 C4          20.1410     7.0420   -35.8480 ca         1 90I      -0.134000
      3 C3          19.7650     6.6190   -34.5820 ca         1 90I      -0.102500
      4 C2          20.5380     6.9410   -33.4690 ca         1 90I      -0.101300
      5 C6          22.0740     8.1200   -34.9120 ca         1 90I      -0.134000
      6 C1          20.1460     6.4540   -32.1080 c3         1 90I       0.207700
      7 C15         19.3600     4.9070   -26.0100 c5         1 90I      -0.152700
      8 C18         18.2160     5.5690   -25.2570 c          1 90I       0.704500
      9 C14         19.9970     3.7660   -25.2330 c3         1 90I      -0.073400
     10 C28         26.0540     5.3870   -23.6700 ca         1 90I      -0.128500
     11 C27         26.5250     6.1050   -24.7600 ca         1 90I      -0.123500
     12 C26         25.6360     6.5920   -25.7110 ca         1 90I      -0.127000
     13 C25         24.2760     6.3620   -25.5590 ca         1 90I      -0.123500
     14 C24         23.8110     5.6470   -24.4630 ca         1 90I      -0.128500
     15 C23         24.6910     5.1470   -23.5060 ca         1 90I      -0.082300
     16 C22         24.1840     4.3150   -22.3640 c3         1 90I      -0.056100
     17 N           20.8670     3.2170   -30.8610 n          1 90I      -0.463800
     18 C           20.3820     4.4690   -30.8510 c          1 90I       0.769100
     19 O           19.7610     4.9540   -29.9220 o          1 90I      -0.609000
     20 C10         21.4810     1.0950   -30.0850 c5         1 90I      -0.086400
     21 C11         20.7210     2.3730   -29.6950 c5         1 90I       0.042700
     22 C12         21.3450     3.0070   -28.4580 c          1 90I       0.677100
     23 C13         21.1420     3.1050   -26.0000 c3         1 90I       0.119700
     24 C16         20.2770     6.0800   -26.3520 c5         1 90I      -0.090400
     25 C17         19.3220     7.2710   -26.4380 c5         1 90I       0.099000
     26 C19         21.7140     1.8600   -25.2910 c3         1 90I       0.043100
     27 C20         22.2650     2.2060   -23.9040 c          1 90I       0.629100
     28 C21         24.2840     2.8140   -22.6580 c3         1 90I       0.109000
     29 C7          21.6950     7.6930   -33.6460 ca         1 90I      -0.102500
     30 C8          21.5410     2.5570   -31.9730 c5         1 90I       0.121000
     31 C9          21.4090     1.0850   -31.6080 c5         1 90I      -0.097400
     32 N1          20.6970     2.7210   -27.3180 ns         1 90I      -0.562900
     33 N2          18.2730     6.8870   -25.5170 ns         1 90I      -0.581900
     34 N3          23.5840     2.4210   -23.8580 ns         1 90I      -0.561900
     35 O1          20.6590     5.1210   -31.9830 os         1 90I      -0.425900
     36 O2          17.3870     5.0070   -24.5620 o          1 90I      -0.633500
     37 O3          21.5280     2.2750   -22.9300 o          1 90I      -0.602100
     38 O4          22.6980     1.3240   -26.1370 oh         1 90I      -0.586800
     39 O5          22.3640     3.6720   -28.5290 o          1 90I      -0.586100
     40 H5          21.5900     8.1270   -37.0030 ha         1 90I       0.131000
     41 H41         19.5300     6.7880   -36.7050 ha         1 90I       0.132500
     42 H31         18.8590     6.0380   -34.4560 ha         1 90I       0.133000
     43 H6          22.9740     8.7080   -35.0360 ha         1 90I       0.132500
     44 H11         20.5660     7.0930   -31.3290 h1         1 90I       0.055700
     45 H12         19.0600     6.4490   -31.9960 h1         1 90I       0.055700
     46 H18         18.9200     4.5180   -26.9370 hc         1 90I       0.086700
     47 H16         20.3720     4.1450   -24.2810 hc         1 90I       0.070200
     48 H17         19.2350     3.0180   -24.9970 hc         1 90I       0.070200
     49 H28         27.5870     6.2870   -24.8670 ha         1 90I       0.131500
     50 H27         26.0030     7.1510   -26.5630 ha         1 90I       0.131000
     51 H26         23.5730     6.7400   -26.2910 ha         1 90I       0.131500
     52 H25         22.7470     5.4810   -24.3420 ha         1 90I       0.127000
     53 H24         24.7600     4.5180   -21.4570 hc         1 90I       0.060700
     54 H23         23.1450     4.5680   -22.1460 hc         1 90I       0.060700
     55 H10         21.0440     0.2110   -29.6230 hc         1 90I       0.064200
     56 H13         22.5220     1.1620   -29.7620 hc         1 90I       0.064200
     57 H14         19.6630     2.1480   -29.5170 h1         1 90I       0.063700
     58 H15         21.9510     3.8280   -26.1330 h1         1 90I       0.094700
     59 H2A         20.9910     6.2410   -25.5400 hc         1 90I       0.063700
     60 H19         20.8410     5.9380   -27.2710 hc         1 90I       0.063700
     61 H2C         19.7900     8.2080   -26.1340 h1         1 90I       0.046200
     62 H2B         18.9330     7.4030   -27.4520 h1         1 90I       0.046200
     63 H21         23.8960     2.2500   -21.8090 h1         1 90I       0.053200
     64 H22         25.3290     2.5300   -22.7810 h1         1 90I       0.053200
     65 H7          22.3030     7.9520   -32.7870 ha         1 90I       0.133000
     66 H82         22.5910     2.8590   -32.0320 h1         1 90I       0.059700
     67 H81         21.0670     2.7950   -32.9240 h1         1 90I       0.059700
     68 H91         20.4430     0.7020   -31.9420 hc         1 90I       0.055700
     69 H92         22.1870     0.4740   -32.0630 hc         1 90I       0.055700
     70 H93         19.8530     2.1690   -27.3750 hn         1 90I       0.311500
     71 H94         17.5410     7.5190   -25.2320 hn         1 90I       0.324500
     72 H32         24.1060     2.3460   -24.7160 hn         1 90I       0.335500
     73 H1          20.8910     1.1510   -25.1310 h1         1 90I       0.059700
     74 H42         22.8790     0.4170   -25.8690 ho         1 90I       0.410000
     75 H29         26.7540     5.0090   -22.9330 ha         1 90I       0.127000
@<TRIPOS>BOND
     1     1     2 ar  
     2     1     5 ar  
     3     1    40 1   
     4     2     3 ar  
     5     2    41 1   
     6     3     4 ar  
     7     3    42 1   
     8     4     6 1   
     9     4    29 ar  
    10     5    29 ar  
    11     5    43 1   
    12     6    35 1   
    13     6    44 1   
    14     6    45 1   
    15     7     8 1   
    16     7     9 1   
    17     7    24 1   
    18     7    46 1   
    19     8    33 1   
    20     8    36 2   
    21     9    23 1   
    22     9    47 1   
    23     9    48 1   
    24    10    11 ar  
    25    10    15 ar  
    26    10    75 1   
    27    11    12 ar  
    28    11    49 1   
    29    12    13 ar  
    30    12    50 1   
    31    13    14 ar  
    32    13    51 1   
    33    14    15 ar  
    34    14    52 1   
    35    15    16 1   
    36    16    28 1   
    37    16    53 1   
    38    16    54 1   
    39    17    18 1   
    40    17    21 1   
    41    17    30 1   
    42    18    19 2   
    43    18    35 1   
    44    20    21 1   
    45    20    31 1   
    46    20    55 1   
    47    20    56 1   
    48    21    22 1   
    49    21    57 1   
    50    22    32 1   
    51    22    39 2   
    52    23    26 1   
    53    23    32 1   
    54    23    58 1   
    55    24    25 1   
    56    24    59 1   
    57    24    60 1   
    58    25    33 1   
    59    25    61 1   
    60    25    62 1   
    61    26    27 1   
    62    26    38 1   
    63    26    73 1   
    64    27    34 1   
    65    27    37 2   
    66    28    34 1   
    67    28    63 1   
    68    28    64 1   
    69    29    65 1   
    70    30    31 1   
    71    30    66 1   
    72    30    67 1   
    73    31    68 1   
    74    31    69 1   
    75    32    70 1   
    76    33    71 1   
    77    34    72 1   
    78    38    74 1   
@<TRIPOS>SUBSTRUCTURE
     1 90I         1 TEMP              0 ****  ****    0 ROOT
