@<TRIPOS>MOLECULE
90J
   27    28     1     0     0
SMALL
No Charge or Current Charge


@<TRIPOS>ATOM
      1 C3           0.9120     2.8770    -0.0610 cc         1 90J      -0.146000
      2 C4           0.6880     1.5280     0.0540 cd         1 90J      -0.173000
      3 C5          -0.7310     1.3760     0.0870 cd         1 90J       0.378900
      4 C6           1.7510     0.4950    -0.0040 ca         1 90J      -0.006000
      5 C7           3.0070     0.8180    -0.5680 ca         1 90J      -0.083000
      6 C8           4.0360    -0.1380    -0.6350 ca         1 90J      -0.150000
      7 C9           3.8280    -1.4260    -0.1250 ca         1 90J       0.168000
      8 C10          2.6010    -1.7590     0.4610 ca         1 90J      -0.150000
      9 C11          1.5690    -0.8050     0.5260 ca         1 90J      -0.083000
     10 O12         -3.5540     0.6350     0.3030 o          1 90J      -0.533100
     11 S13         -4.7430    -2.1640     0.0920 sh         1 90J      -0.348800
     12 F9           4.8180    -2.3430    -0.1860 f          1 90J      -0.178000
     13 N2          -0.3530     3.4500     0.0010 na         1 90J       0.006800
     14 N1          -1.3740     2.5240     0.0820 nc         1 90J      -0.499800
     15 C13         -2.9360    -1.7000    -0.0180 c3         1 90J      -0.038400
     16 C12         -2.6650    -0.1870     0.1240 c          1 90J       0.621100
     17 N5          -1.3270     0.1390     0.0380 ns         1 90J      -0.491400
     18 H1           1.8200     3.4610    -0.1510 h4         1 90J       0.159000
     19 H2           3.1880     1.8080    -0.9790 ha         1 90J       0.119000
     20 H3           4.9930     0.1190    -1.0820 ha         1 90J       0.132500
     21 H4           2.4530    -2.7530     0.8760 ha         1 90J       0.132500
     22 H5           0.6530    -1.0790     1.0380 ha         1 90J       0.119000
     23 H6          -4.5720    -3.4980    -0.0710 hs         1 90J       0.183800
     24 H7          -0.5540     4.4500    -0.0260 hn         1 90J       0.381000
     25 H8          -2.3850    -2.2220     0.7750 h1         1 90J       0.074700
     26 H9          -2.5420    -2.0280    -0.9880 h1         1 90J       0.074700
     27 H10         -0.7210    -0.6550    -0.1040 hn         1 90J       0.328500
@<TRIPOS>BOND
     1     1     2 2   
     2     1    13 1   
     3     1    18 1   
     4     2     3 1   
     5     2     4 1   
     6     3    14 2   
     7     3    17 1   
     8     4     5 ar  
     9     4     9 ar  
    10     5     6 ar  
    11     5    19 1   
    12     6     7 ar  
    13     6    20 1   
    14     7     8 ar  
    15     7    12 1   
    16     8     9 ar  
    17     8    21 1   
    18     9    22 1   
    19    10    16 2   
    20    11    15 1   
    21    11    23 1   
    22    13    14 1   
    23    13    24 1   
    24    15    16 1   
    25    15    25 1   
    26    15    26 1   
    27    16    17 1   
    28    17    27 1   
@<TRIPOS>SUBSTRUCTURE
     1 90J         1 TEMP              0 ****  ****    0 ROOT
