@<TRIPOS>MOLECULE
90J
   27    28     1     0     0
SMALL
abcg2


@<TRIPOS>ATOM
      1 C3           0.8260     2.8740     0.0560 cc         1 90J      -0.146000
      2 C4           0.6910     1.5050    -0.0650 cd         1 90J      -0.173000
      3 C5          -0.7000     1.3330    -0.2510 cd         1 90J       0.378900
      4 C6           1.7490     0.4960    -0.0170 ca         1 90J      -0.006000
      5 C7           3.0000     0.7560    -0.5790 ca         1 90J      -0.083000
      6 C8           4.0230    -0.1780    -0.5250 ca         1 90J      -0.150000
      7 C9           3.7800    -1.3910     0.0910 ca         1 90J       0.168000
      8 C10          2.5560    -1.6890     0.6570 ca         1 90J      -0.150000
      9 C11          1.5470    -0.7390     0.6020 ca         1 90J      -0.083000
     10 O12         -2.9760     0.3220     1.1050 o          1 90J      -0.533100
     11 S13         -4.3360    -2.1360     0.8290 sh         1 90J      -0.348800
     12 F9           4.7610    -2.3050     0.1410 f          1 90J      -0.178000
     13 N2          -0.4040     3.3920    -0.0460 na         1 90J       0.006800
     14 N1          -1.3460     2.4800    -0.2470 nc         1 90J      -0.499800
     15 C13         -2.9170    -1.6820    -0.2040 c3         1 90J      -0.038400
     16 C12         -2.4370    -0.3110     0.2220 c          1 90J       0.621100
     17 N5          -1.3590     0.1220    -0.4750 ns         1 90J      -0.491400
     18 H1           1.6930     3.4900     0.2260 h4         1 90J       0.159000
     19 H2           3.1800     1.6990    -1.0790 ha         1 90J       0.119000
     20 H3           4.9890     0.0320    -0.9650 ha         1 90J       0.132500
     21 H4           2.3920    -2.6430     1.1430 ha         1 90J       0.132500
     22 H5           0.5980    -0.9650     1.0700 ha         1 90J       0.119000
     23 H6          -4.5350    -3.3290     0.2560 hs         1 90J       0.183800
     24 H7          -0.6580     4.3650     0.0190 hn         1 90J       0.381000
     25 H8          -2.1120    -2.4100    -0.0920 h1         1 90J       0.074700
     26 H9          -3.1960    -1.6620    -1.2580 h1         1 90J       0.074700
     27 H10         -0.9480    -0.5000    -1.1560 hn         1 90J       0.328500
@<TRIPOS>BOND
     1     1     2 2   
     2     1    13 1   
     3     1    18 1   
     4     2     3 1   
     5     2     4 1   
     6     3    14 2   
     7     3    17 1   
     8     4     5 ar  
     9     4     9 ar  
    10     5     6 ar  
    11     5    19 1   
    12     6     7 ar  
    13     6    20 1   
    14     7     8 ar  
    15     7    12 1   
    16     8     9 ar  
    17     8    21 1   
    18     9    22 1   
    19    10    16 2   
    20    11    15 1   
    21    11    23 1   
    22    13    14 1   
    23    13    24 1   
    24    15    16 1   
    25    15    25 1   
    26    15    26 1   
    27    16    17 1   
    28    17    27 1   
@<TRIPOS>SUBSTRUCTURE
     1 90J         1 TEMP              0 ****  ****    0 ROOT
