@<TRIPOS>MOLECULE
90K
   53    56     1     0     0
SMALL
bcc


@<TRIPOS>ATOM
      1 CBD          6.5720    -0.4790    -2.4650 c3         1 90K      -0.047800
      2 CBC          7.1190     0.1580    -1.2230 ca         1 90K      -0.069300
      3 CBE          8.4220     0.6410    -1.1780 ca         1 90K      -0.123000
      4 CBF          8.9190     1.2550    -0.0380 ca         1 90K      -0.115000
      5 CBG          8.1250     1.3870     1.0900 ca         1 90K      -0.120000
      6 CAB          6.8300     0.8940     1.0570 ca         1 90K       0.041400
      7 CL1          5.8470     1.0200     2.4720 cl         1 90K      -0.092400
      8 CAC          6.3170     0.2850    -0.0850 ca         1 90K       0.049600
      9 NAD          5.0010    -0.2190    -0.0980 ns         1 90K      -0.495100
     10 CAE          3.9180     0.5970    -0.1530 c          1 90K       0.730700
     11 OBB          4.0150     1.8120    -0.1910 o          1 90K      -0.571100
     12 CAF          2.6040    -0.0560    -0.1650 cc         1 90K      -0.250000
     13 SBA          2.3030    -1.7630    -0.0160 ss         1 90K      -0.256300
     14 CAG          1.4130     0.5890    -0.2910 cd         1 90K       0.466200
     15 NAH          0.2960    -0.1760    -0.2850 nd         1 90K      -0.720000
     16 CAI          0.5970    -1.4350    -0.1490 cc         1 90K       0.736300
     17 NAJ         -0.2720    -2.4660    -0.0980 nu         1 90K      -0.728300
     18 CAK         -1.6670    -2.4430    -0.1160 ca         1 90K       0.157600
     19 CAZ         -2.4280    -1.2900    -0.2830 ca         1 90K      -0.097000
     20 CAL         -2.3130    -3.6740     0.0420 ca         1 90K      -0.167000
     21 CAM         -3.6920    -3.7440     0.0400 ca         1 90K      -0.105000
     22 CAN         -4.4570    -2.5940    -0.1040 ca         1 90K      -0.134000
     23 CAO         -3.8180    -1.3690    -0.2600 ca         1 90K      -0.126600
     24 CAP         -4.5760    -0.0950    -0.4650 c          1 90K       0.685700
     25 OAY         -4.1210     0.8040    -1.1510 o          1 90K      -0.567100
     26 NAQ         -5.7680    -0.0390     0.1790 ns         1 90K      -0.469100
     27 CAR         -6.7350     0.9740     0.1750 ca         1 90K       0.111600
     28 CAX         -6.7060     2.0670    -0.6850 ca         1 90K      -0.220000
     29 CAV         -7.7230     3.0290    -0.6390 ca         1 90K       0.178600
     30 NAW         -7.6560     4.1340    -1.4580 nv         1 90K      -0.822200
     31 CAU         -8.7690     2.8800     0.2780 ca         1 90K      -0.225000
     32 CAT         -8.7850     1.7850     1.1250 ca         1 90K      -0.061000
     33 CAS         -7.7840     0.8300     1.0880 ca         1 90K      -0.234000
     34 H1           6.2920    -1.5210    -2.3000 hc         1 90K       0.045700
     35 H2           5.6800     0.0410    -2.8180 hc         1 90K       0.045700
     36 H3           7.3090    -0.4590    -3.2650 hc         1 90K       0.045700
     37 H4           9.0530     0.5470    -2.0530 ha         1 90K       0.136000
     38 H5           9.9320     1.6330    -0.0240 ha         1 90K       0.137000
     39 H6           8.5060     1.8610     1.9840 ha         1 90K       0.150000
     40 H7           4.8940    -1.2200    -0.1660 hn         1 90K       0.324500
     41 H8           1.3190     1.6610    -0.3970 h4         1 90K       0.066100
     42 H9           0.1320    -3.3840     0.0110 hn         1 90K       0.450800
     43 H10         -1.9470    -0.3350    -0.4200 ha         1 90K       0.194000
     44 H11         -1.7280    -4.5780     0.1660 ha         1 90K       0.131000
     45 H12         -4.1750    -4.7050     0.1500 ha         1 90K       0.137000
     46 H13         -5.5370    -2.6760    -0.1240 ha         1 90K       0.137000
     47 H14         -5.9660    -0.7940     0.8170 hn         1 90K       0.319500
     48 H15         -5.9060     2.1910    -1.3970 ha         1 90K       0.164000
     49 H16         -7.1180     4.0230    -2.3020 hn         1 90K       0.394800
     50 H17         -8.5300     4.6030    -1.6320 hn         1 90K       0.394800
     51 H18         -9.5610     3.6170     0.3230 ha         1 90K       0.131000
     52 H19         -9.5980     1.6720     1.8310 ha         1 90K       0.127000
     53 H20         -7.8120    -0.0210     1.7580 ha         1 90K       0.127000
@<TRIPOS>BOND
     1     1     2 1   
     2     1    34 1   
     3     1    35 1   
     4     1    36 1   
     5     2     3 ar  
     6     2     8 ar  
     7     3     4 ar  
     8     3    37 1   
     9     4     5 ar  
    10     4    38 1   
    11     5     6 ar  
    12     5    39 1   
    13     6     7 1   
    14     6     8 ar  
    15     8     9 1   
    16     9    10 1   
    17     9    40 1   
    18    10    11 2   
    19    10    12 1   
    20    12    13 1   
    21    12    14 2   
    22    13    16 1   
    23    14    15 1   
    24    14    41 1   
    25    15    16 2   
    26    16    17 1   
    27    17    18 1   
    28    17    42 1   
    29    18    19 ar  
    30    18    20 ar  
    31    19    23 ar  
    32    19    43 1   
    33    20    21 ar  
    34    20    44 1   
    35    21    22 ar  
    36    21    45 1   
    37    22    23 ar  
    38    22    46 1   
    39    23    24 1   
    40    24    25 2   
    41    24    26 1   
    42    26    27 1   
    43    26    47 1   
    44    27    28 ar  
    45    27    33 ar  
    46    28    29 ar  
    47    28    48 1   
    48    29    30 1   
    49    29    31 ar  
    50    30    49 1   
    51    30    50 1   
    52    31    32 ar  
    53    31    51 1   
    54    32    33 ar  
    55    32    52 1   
    56    33    53 1   
@<TRIPOS>SUBSTRUCTURE
     1 90K         1 TEMP              0 ****  ****    0 ROOT
