@<TRIPOS>MOLECULE
90K
   53    56     1     0     0
SMALL
No Charge or Current Charge


@<TRIPOS>ATOM
      1 CBD          6.4440    -0.4140    -2.7360 c3         1 90K      -0.047800
      2 CBC          7.1920     0.0480    -1.4870 ca         1 90K      -0.069300
      3 CBE          8.5750     0.3040    -1.5640 ca         1 90K      -0.105000
      4 CBF          9.2860     0.7310    -0.4320 ca         1 90K      -0.097000
      5 CBG          8.6190     0.8940     0.7920 ca         1 90K      -0.102000
      6 CAB          7.2400     0.6450     0.8840 ca         1 90K       0.133000
      7 Cl1          6.4790     0.7810     2.4720 cl         1 90K      -0.184000
      8 CAC          6.5120     0.2360    -0.2610 ca         1 90K      -0.043000
      9 NAD          5.1170    -0.0240    -0.2000 ns         1 90K      -0.169000
     10 CAE          4.0800     0.7900     0.2180 c          1 90K       0.663700
     11 OBB          4.2290     1.9570     0.5570 o          1 90K      -0.571100
     12 CAF          2.7720     0.1220     0.1890 cc         1 90K      -0.329600
     13 SBA          2.4780    -1.5270    -0.2980 ss         1 90K      -0.111400
     14 CAG          1.6140     0.7590     0.5580 cd         1 90K       0.400900
     15 NAH          0.4710    -0.0270     0.4660 nd         1 90K      -0.720000
     16 CAI          0.7920    -1.2220     0.0250 cc         1 90K       0.736300
     17 NAJ         -0.1690    -2.1760    -0.1220 nu         1 90K      -0.921900
     18 CAK         -1.5430    -2.1950     0.1210 ca         1 90K       0.296000
     19 CAZ         -2.3690    -1.0940    -0.1740 ca         1 90K      -0.079000
     20 CAL         -2.1190    -3.3650     0.6400 ca         1 90K      -0.149000
     21 CAM         -3.4990    -3.4280     0.8830 ca         1 90K      -0.087000
     22 CAN         -4.3200    -2.3240     0.6000 ca         1 90K      -0.116000
     23 CAO         -3.7650    -1.1360     0.0610 ca         1 90K      -0.126600
     24 CAP         -4.6130     0.0810    -0.2730 c          1 90K       0.618700
     25 OAY         -4.1080     1.0910    -0.7510 o          1 90K      -0.567100
     26 NAQ         -5.9720    -0.0410    -0.0050 ns         1 90K      -0.143000
     27 CAR         -7.0690     0.8500    -0.1620 ca         1 90K       0.019000
     28 CAX         -6.9430     2.1850    -0.6090 ca         1 90K      -0.202000
     29 CAV         -8.0760     3.0010    -0.7350 ca         1 90K       0.317000
     30 NAW         -7.9450     4.2900    -1.1680 nv         1 90K      -1.071000
     31 CAU         -9.3440     2.5010    -0.4170 ca         1 90K      -0.207000
     32 CAT         -9.4840     1.1780     0.0300 ca         1 90K      -0.043000
     33 CAS         -8.3490     0.3610     0.1560 ca         1 90K      -0.216000
     34 H1           5.9910    -1.4010    -2.5820 hc         1 90K       0.045700
     35 H2           5.6430     0.2880    -2.9980 hc         1 90K       0.045700
     36 H3           7.1080    -0.4910    -3.6050 hc         1 90K       0.045700
     37 H4           9.1050     0.1710    -2.5060 ha         1 90K       0.118000
     38 H5          10.3540     0.9230    -0.5000 ha         1 90K       0.119000
     39 H6           9.1730     1.2030     1.6740 ha         1 90K       0.132000
     40 H7           4.8380    -0.9430    -0.5170 hn         1 90K       0.158000
     41 H8           1.5320     1.7850     0.9020 h4         1 90K       0.066100
     42 H9           0.2530    -3.0940    -0.2310 hn         1 90K       0.506000
     43 H10         -1.9200    -0.2020    -0.6010 ha         1 90K       0.176000
     44 H11         -1.4960    -4.2270     0.8640 ha         1 90K       0.113000
     45 H12         -3.9360    -4.3380     1.2910 ha         1 90K       0.119000
     46 H13         -5.3850    -2.4140     0.8010 ha         1 90K       0.119000
     47 H14         -6.2370    -0.9370     0.3780 hn         1 90K       0.153000
     48 H15         -5.9760     2.6060    -0.8570 ha         1 90K       0.146000
     49 H16         -7.0560     4.6080    -1.5470 hn         1 90K       0.450000
     50 H17         -8.7760     4.8300    -1.4020 hn         1 90K       0.450000
     51 H18        -10.2220     3.1330    -0.5130 ha         1 90K       0.113000
     52 H19        -10.4690     0.7880     0.2790 ha         1 90K       0.109000
     53 H20         -8.4690    -0.6630     0.5040 ha         1 90K       0.109000
@<TRIPOS>BOND
     1     1     2 1   
     2     1    34 1   
     3     1    35 1   
     4     1    36 1   
     5     2     3 ar  
     6     2     8 ar  
     7     3     4 ar  
     8     3    37 1   
     9     4     5 ar  
    10     4    38 1   
    11     5     6 ar  
    12     5    39 1   
    13     6     7 1   
    14     6     8 ar  
    15     8     9 1   
    16     9    10 1   
    17     9    40 1   
    18    10    11 2   
    19    10    12 1   
    20    12    13 1   
    21    12    14 2   
    22    13    16 1   
    23    14    15 1   
    24    14    41 1   
    25    15    16 2   
    26    16    17 1   
    27    17    18 1   
    28    17    42 1   
    29    18    19 ar  
    30    18    20 ar  
    31    19    23 ar  
    32    19    43 1   
    33    20    21 ar  
    34    20    44 1   
    35    21    22 ar  
    36    21    45 1   
    37    22    23 ar  
    38    22    46 1   
    39    23    24 1   
    40    24    25 2   
    41    24    26 1   
    42    26    27 1   
    43    26    47 1   
    44    27    28 ar  
    45    27    33 ar  
    46    28    29 ar  
    47    28    48 1   
    48    29    30 1   
    49    29    31 ar  
    50    30    49 1   
    51    30    50 1   
    52    31    32 ar  
    53    31    51 1   
    54    32    33 ar  
    55    32    52 1   
    56    33    53 1   
@<TRIPOS>SUBSTRUCTURE
     1 90K         1 TEMP              0 ****  ****    0 ROOT
