@<TRIPOS>MOLECULE
90M
   30    31     1     0     0
SMALL
bcc


@<TRIPOS>ATOM
      1 N1          -0.9100    -1.1540     0.1970 na         1 90M       0.003400
      2 C2           0.0480     0.8060    -0.0680 cc         1 90M      -0.291600
      3 C5          -1.1670     0.1530     0.0200 cd         1 90M       0.043300
      4 C6           2.4530    -0.1640     0.0500 ca         1 90M      -0.130500
      5 C8           4.5870    -1.1900    -0.4730 ca         1 90M      -0.175500
      6 C3           0.9890    -0.2400     0.0810 cc         1 90M       0.389800
      7 O12         -3.6640    -1.1970     0.0680 o          1 90M      -0.567100
      8 C10          4.5200     1.0190     0.5030 ca         1 90M      -0.175500
      9 C11          3.1350     0.9560     0.5260 ca         1 90M      -0.082500
     10 C12         -3.6020     0.0130    -0.0500 c          1 90M       0.688100
     11 C13         -4.8290     0.8810    -0.1930 c3         1 90M      -0.083300
     12 C4B          0.2710     2.2610    -0.3120 c3         1 90M      -0.002800
     13 N5          -2.4350     0.7000    -0.0650 ns         1 90M      -0.459100
     14 C7           3.2020    -1.2330    -0.4460 ca         1 90M      -0.082500
     15 C9           5.2230    -0.0580     0.0010 ca         1 90M       0.138900
     16 N2           0.3930    -1.4110     0.2360 nd         1 90M      -0.507800
     17 S13         -6.2940    -0.1870    -0.1500 sh         1 90M      -0.293900
     18 H1          -1.5850    -1.8930     0.3020 hn         1 90M       0.353700
     19 H2           5.1590    -2.0200    -0.8650 ha         1 90M       0.149500
     20 H3           5.0400     1.8890     0.8800 ha         1 90M       0.149500
     21 H4           2.5900     1.7910     0.9450 ha         1 90M       0.142500
     22 H5          -4.8610     1.6120     0.6170 h1         1 90M       0.080700
     23 H6          -4.7820     1.4330    -1.1330 h1         1 90M       0.080700
     24 H7           0.4810     2.8120     0.6070 hc         1 90M       0.035700
     25 H8           1.1110     2.4230    -0.9880 hc         1 90M       0.035700
     26 H9          -0.5980     2.7310    -0.7740 hc         1 90M       0.035700
     27 H10         -2.4760     1.7050    -0.1500 hn         1 90M       0.338500
     28 H11          2.6970    -2.1110    -0.8260 ha         1 90M       0.142500
     29 H12         -7.1760     0.8030    -0.3270 hs         1 90M       0.189800
     30 F9           6.5650    -0.0040    -0.0290 f          1 90M      -0.144900
@<TRIPOS>BOND
     1     1     3 1   
     2     1    16 1   
     3     1    18 1   
     4     2     3 2   
     5     2     6 1   
     6     2    12 1   
     7     3    13 1   
     8     4     6 1   
     9     4     9 ar  
    10     4    14 ar  
    11     5    14 ar  
    12     5    15 ar  
    13     5    19 1   
    14     6    16 2   
    15     7    10 2   
    16     8     9 ar  
    17     8    15 ar  
    18     8    20 1   
    19     9    21 1   
    20    10    11 1   
    21    10    13 1   
    22    11    17 1   
    23    11    22 1   
    24    11    23 1   
    25    12    24 1   
    26    12    25 1   
    27    12    26 1   
    28    13    27 1   
    29    14    28 1   
    30    15    30 1   
    31    17    29 1   
@<TRIPOS>SUBSTRUCTURE
     1 90M         1 TEMP              0 ****  ****    0 ROOT
