@<TRIPOS>MOLECULE
90M
   30    31     1     0     0
SMALL
No Charge or Current Charge


@<TRIPOS>ATOM
      1 N1          -0.8820    -1.3240    -0.0150 na         1 90M       0.003800
      2 C2           0.0070     0.6880    -0.1330 cc         1 90M      -0.226300
      3 C5          -1.1850     0.0310    -0.0790 cd         1 90M      -0.007400
      4 C6           2.4860    -0.1680    -0.0480 ca         1 90M      -0.130500
      5 C8           4.7190    -1.1780    -0.2800 ca         1 90M      -0.157500
      6 C3           1.0100    -0.3320    -0.0940 cc         1 90M       0.324500
      7 O12         -3.7750    -1.2290     0.0030 o          1 90M      -0.567100
      8 C10          4.5190     1.1320     0.4230 ca         1 90M      -0.157500
      9 C11          3.1170     1.0330     0.3630 ca         1 90M      -0.064500
     10 C12         -3.6680    -0.0090    -0.0610 c          1 90M       0.621100
     11 C13         -4.8750     0.9510    -0.1020 c3         1 90M      -0.035400
     12 C4B          0.2150     2.1770    -0.2910 c3         1 90M      -0.002800
     13 N5          -2.4380     0.6220    -0.1020 ns         1 90M      -0.392100
     14 C7           3.3180    -1.2810    -0.3380 ca         1 90M      -0.064500
     15 C9           5.3160     0.0300     0.0940 ca         1 90M       0.174000
     16 N2           0.4880    -1.5500    -0.0240 nd         1 90M      -0.507800
     17 S13         -6.5320     0.0860    -0.0480 sh         1 90M      -0.341800
     18 H1          -1.5600    -2.0840     0.0330 hn         1 90M       0.404000
     19 H2           5.3400    -2.0370    -0.5220 ha         1 90M       0.131500
     20 H3           4.9870     2.0610     0.7380 ha         1 90M       0.131500
     21 H4           2.5440     1.8950     0.6820 ha         1 90M       0.124500
     22 H5          -4.7980     1.6320     0.7540 h1         1 90M       0.080700
     23 H6          -4.8090     1.5420    -1.0240 h1         1 90M       0.080700
     24 H7           0.4040     2.6550     0.6770 hc         1 90M       0.035700
     25 H8           1.0500     2.3950    -0.9670 hc         1 90M       0.035700
     26 H9          -0.6700     2.6570    -0.7240 hc         1 90M       0.035700
     27 H10         -2.4930     1.6320    -0.1520 hn         1 90M       0.338500
     28 H11          2.8840    -2.2330    -0.6340 ha         1 90M       0.124500
     29 H12         -7.2940     1.2060    -0.1000 hs         1 90M       0.189800
     30 F9           6.6620     0.1280     0.1550 f          1 90M      -0.180000
@<TRIPOS>BOND
     1     1     3 1   
     2     1    16 1   
     3     1    18 1   
     4     2     3 2   
     5     2     6 1   
     6     2    12 1   
     7     3    13 1   
     8     4     6 1   
     9     4     9 ar  
    10     4    14 ar  
    11     5    14 ar  
    12     5    15 ar  
    13     5    19 1   
    14     6    16 2   
    15     7    10 2   
    16     8     9 ar  
    17     8    15 ar  
    18     8    20 1   
    19     9    21 1   
    20    10    11 1   
    21    10    13 1   
    22    11    17 1   
    23    11    22 1   
    24    11    23 1   
    25    12    24 1   
    26    12    25 1   
    27    12    26 1   
    28    13    27 1   
    29    14    28 1   
    30    15    30 1   
    31    17    29 1   
@<TRIPOS>SUBSTRUCTURE
     1 90M         1 TEMP              0 ****  ****    0 ROOT
