@<TRIPOS>MOLECULE
90N
   53    56     1     0     0
SMALL
abcg2


@<TRIPOS>ATOM
      1 CBE         -6.8420    -0.4030     2.4460 c3         1 90N      -0.047800
      2 CBD         -7.4210     0.1530     1.1800 ca         1 90N      -0.073300
      3 CBF         -8.7320     0.6160     1.1340 ca         1 90N      -0.104000
      4 CBG         -9.2610     1.1520    -0.0300 ca         1 90N      -0.098000
      5 CBH         -8.4930     1.2250    -1.1810 ca         1 90N      -0.101000
      6 CAB         -7.1910     0.7520    -1.1470 ca         1 90N       0.133000
      7 CL1         -6.2420     0.8000    -2.5900 cl         1 90N      -0.183000
      8 CAC         -6.6440     0.2230     0.0200 ca         1 90N      -0.042000
      9 NAD         -5.3220    -0.2620     0.0350 ns         1 90N      -0.167000
     10 CAE         -4.2480     0.5690     0.0010 c          1 90N       0.662700
     11 OBC         -4.3590     1.7810    -0.0530 o          1 90N      -0.568100
     12 CAF         -2.9280    -0.0700     0.0330 cc         1 90N      -0.331600
     13 SBB         -2.6140    -1.7760    -0.0860 ss         1 90N      -0.106400
     14 CAG         -1.7440     0.5860     0.1650 cd         1 90N       0.400900
     15 NAH         -0.6220    -0.1710     0.1890 nd         1 90N      -0.721000
     16 CAI         -0.9120    -1.4350     0.0710 cc         1 90N       0.735300
     17 NAJ         -0.0360    -2.4610     0.0530 nu         1 90N      -0.920900
     18 CAK          1.3550    -2.4320     0.1340 ca         1 90N       0.295000
     19 CBA          2.1090    -1.2680     0.2480 ca         1 90N      -0.080000
     20 CAL          2.0080    -3.6690     0.0980 ca         1 90N      -0.147000
     21 CAM          3.3850    -3.7350     0.1720 ca         1 90N      -0.087000
     22 CAN          4.1440    -2.5770     0.2690 ca         1 90N      -0.110000
     23 CAO          3.4990    -1.3460     0.3030 ca         1 90N      -0.128600
     24 CAP          4.2450    -0.0590     0.4580 c          1 90N       0.627700
     25 OAZ          3.7450     0.9070     0.9890 o          1 90N      -0.512100
     26 NAQ          5.5150    -0.0830    -0.0640 ns         1 90N      -0.319900
     27 CAR          6.5160     0.8570     0.0410 ca         1 90N       0.315900
     28 NAS          6.3730     1.8870     0.8440 nb         1 90N      -0.290000
     29 NAY          7.5840     0.5820    -0.7060 nb         1 90N      -0.321000
     30 CAW          8.5760     1.4610    -0.6010 ca         1 90N       0.226300
     31 CAX          9.7890     1.2190    -1.4350 c3         1 90N      -0.140400
     32 NAV          8.5550     2.5350     0.1670 nb         1 90N      -0.312000
     33 CAT          7.4290     2.7100     0.8730 ca         1 90N       0.429900
     34 NAU          7.3530     3.7780     1.6620 nv         1 90N      -1.060900
     35 H1          -6.5480    -1.4480     2.3360 hc         1 90N       0.046033
     36 H2          -5.9530     0.1500     2.7540 hc         1 90N       0.046033
     37 H3          -7.5660    -0.3490     3.2570 hc         1 90N       0.046033
     38 H4          -9.3430     0.5670     2.0260 ha         1 90N       0.117000
     39 H5         -10.2800     1.5150    -0.0460 ha         1 90N       0.119000
     40 H6          -8.8990     1.6370    -2.0940 ha         1 90N       0.132000
     41 H7          -5.1980    -1.2440     0.2300 hn         1 90N       0.158000
     42 H8          -1.6580     1.6600     0.2560 h4         1 90N       0.065100
     43 H9          -0.4330    -3.3840    -0.0360 hn         1 90N       0.507000
     44 H10          1.6220    -0.3060     0.2870 ha         1 90N       0.176000
     45 H11          1.4290    -4.5820     0.0160 ha         1 90N       0.113000
     46 H12          3.8720    -4.7010     0.1570 ha         1 90N       0.120000
     47 H13          5.2200    -2.6570     0.3500 ha         1 90N       0.123000
     48 H14          5.7650    -0.8640    -0.6530 hn         1 90N       0.175000
     49 H15          9.5870     1.5080    -2.4680 hc         1 90N       0.062367
     50 H16         10.6350     1.8020    -1.0790 hc         1 90N       0.062367
     51 H17         10.0490     0.1610    -1.4410 hc         1 90N       0.062367
     52 H18          8.1370     4.4010     1.7520 hn         1 90N       0.511500
     53 H19          6.5400     3.9370     2.2310 hn         1 90N       0.511500
@<TRIPOS>BOND
     1     1     2 1   
     2     1    35 1   
     3     1    36 1   
     4     1    37 1   
     5     2     3 ar  
     6     2     8 ar  
     7     3     4 ar  
     8     3    38 1   
     9     4     5 ar  
    10     4    39 1   
    11     5     6 ar  
    12     5    40 1   
    13     6     7 1   
    14     6     8 ar  
    15     8     9 1   
    16     9    10 1   
    17     9    41 1   
    18    10    11 2   
    19    10    12 1   
    20    12    13 1   
    21    12    14 2   
    22    13    16 1   
    23    14    15 1   
    24    14    42 1   
    25    15    16 2   
    26    16    17 1   
    27    17    18 1   
    28    17    43 1   
    29    18    19 ar  
    30    18    20 ar  
    31    19    23 ar  
    32    19    44 1   
    33    20    21 ar  
    34    20    45 1   
    35    21    22 ar  
    36    21    46 1   
    37    22    23 ar  
    38    22    47 1   
    39    23    24 1   
    40    24    25 2   
    41    24    26 1   
    42    26    27 1   
    43    26    48 1   
    44    27    28 ar  
    45    27    29 ar  
    46    28    33 ar  
    47    29    30 ar  
    48    30    31 1   
    49    30    32 ar  
    50    31    49 1   
    51    31    50 1   
    52    31    51 1   
    53    32    33 ar  
    54    33    34 1   
    55    34    52 1   
    56    34    53 1   
@<TRIPOS>SUBSTRUCTURE
     1 90N         1 TEMP              0 ****  ****    0 ROOT
