@<TRIPOS>MOLECULE
90N
   53    56     1     0     0
SMALL
No Charge or Current Charge


@<TRIPOS>ATOM
      1 CBE         -6.7660    -0.1150     2.6260 c3         1 90N      -0.047800
      2 CBD         -7.4810     0.1880     1.3120 ca         1 90N      -0.073300
      3 CBF         -8.8640     0.4590     1.3220 ca         1 90N      -0.104000
      4 CBG         -9.5450     0.7420     0.1280 ca         1 90N      -0.098000
      5 CBH         -8.8490     0.7430    -1.0900 ca         1 90N      -0.101000
      6 CAB         -7.4700     0.4770    -1.1180 ca         1 90N       0.133000
      7 Cl1         -6.6720     0.4040    -2.6910 cl         1 90N      -0.183000
      8 CAC         -6.7720     0.2140     0.0870 ca         1 90N      -0.042000
      9 NAD         -5.3790    -0.0600     0.0940 ns         1 90N      -0.167000
     10 CAE         -4.3260     0.6880    -0.4010 c          1 90N       0.662700
     11 OBC         -4.4570     1.8030    -0.8910 o          1 90N      -0.568100
     12 CAF         -3.0240     0.0230    -0.2550 cc         1 90N      -0.331600
     13 SBB         -2.7550    -1.5520     0.4460 ss         1 90N      -0.106400
     14 CAG         -1.8530     0.6010    -0.6760 cd         1 90N       0.400900
     15 NAH         -0.7190    -0.1730    -0.4560 nd         1 90N      -0.721000
     16 CAI         -1.0590    -1.3000     0.1270 cc         1 90N       0.735300
     17 NAJ         -0.1100    -2.2320     0.4180 nu         1 90N      -0.920900
     18 CAK          1.2700    -2.2890     0.2120 ca         1 90N       0.295000
     19 CBA          2.0960    -1.1620     0.3820 ca         1 90N      -0.080000
     20 CAL          1.8480    -3.5180    -0.1370 ca         1 90N      -0.147000
     21 CAM          3.2340    -3.6190    -0.3360 ca         1 90N      -0.087000
     22 CAN          4.0560    -2.4910    -0.1790 ca         1 90N      -0.110000
     23 CAO          3.4970    -1.2410     0.1870 ca         1 90N      -0.128600
     24 CAP          4.3460     0.0030     0.3790 c          1 90N       0.627700
     25 OAZ          3.8490     1.0730     0.7080 o          1 90N      -0.512100
     26 NAQ          5.7000    -0.1480     0.1510 ns         1 90N      -0.319900
     27 CAR          6.7480     0.7830     0.2400 ca         1 90N       0.315900
     28 NAS          6.6540     1.7810     1.1400 nb         1 90N      -0.290000
     29 NAY          7.7830     0.5580    -0.5910 nb         1 90N      -0.321000
     30 CAW          8.7900     1.4500    -0.4800 ca         1 90N       0.226300
     31 CAX          9.9890     1.2700    -1.3920 c3         1 90N      -0.140400
     32 NAV          8.8060     2.4940     0.3760 nb         1 90N      -0.312000
     33 CAT          7.7150     2.5970     1.1470 ca         1 90N       0.429900
     34 NAU          7.6910     3.6230     2.0240 nv         1 90N      -1.060900
     35 H1          -6.3180    -1.1150     2.6100 hc         1 90N       0.046033
     36 H2          -5.9650     0.6110     2.8150 hc         1 90N       0.046033
     37 H3          -7.4510    -0.0760     3.4820 hc         1 90N       0.046033
     38 H4          -9.4160     0.4510     2.2600 ha         1 90N       0.117000
     39 H5         -10.6130     0.9470     0.1460 ha         1 90N       0.119000
     40 H6          -9.3800     0.9400    -2.0180 ha         1 90N       0.132000
     41 H7          -5.1150    -0.9320     0.5330 hn         1 90N       0.158000
     42 H8          -1.7550     1.5730    -1.1460 h4         1 90N       0.065100
     43 H9          -0.5420    -3.1260     0.6340 hn         1 90N       0.507000
     44 H10          1.6450    -0.2210     0.6790 ha         1 90N       0.176000
     45 H11          1.2250    -4.3990    -0.2620 ha         1 90N       0.113000
     46 H12          3.6740    -4.5750    -0.6130 ha         1 90N       0.120000
     47 H13          5.1250    -2.6080    -0.3410 ha         1 90N       0.123000
     48 H14          5.9860    -1.0600    -0.1730 hn         1 90N       0.175000
     49 H15          9.8410     1.8050    -2.3370 hc         1 90N       0.062367
     50 H16         10.9060     1.6530    -0.9290 hc         1 90N       0.062367
     51 H17         10.1560     0.2120    -1.6280 hc         1 90N       0.062367
     52 H18          8.5660     4.1030     2.2220 hn         1 90N       0.511500
     53 H19          7.0090     3.5970     2.7790 hn         1 90N       0.511500
@<TRIPOS>BOND
     1     1     2 1   
     2     1    35 1   
     3     1    36 1   
     4     1    37 1   
     5     2     3 ar  
     6     2     8 ar  
     7     3     4 ar  
     8     3    38 1   
     9     4     5 ar  
    10     4    39 1   
    11     5     6 ar  
    12     5    40 1   
    13     6     7 1   
    14     6     8 ar  
    15     8     9 1   
    16     9    10 1   
    17     9    41 1   
    18    10    11 2   
    19    10    12 1   
    20    12    13 1   
    21    12    14 2   
    22    13    16 1   
    23    14    15 1   
    24    14    42 1   
    25    15    16 2   
    26    16    17 1   
    27    17    18 1   
    28    17    43 1   
    29    18    19 ar  
    30    18    20 ar  
    31    19    23 ar  
    32    19    44 1   
    33    20    21 ar  
    34    20    45 1   
    35    21    22 ar  
    36    21    46 1   
    37    22    23 ar  
    38    22    47 1   
    39    23    24 1   
    40    24    25 2   
    41    24    26 1   
    42    26    27 1   
    43    26    48 1   
    44    27    28 ar  
    45    27    29 ar  
    46    28    33 ar  
    47    29    30 ar  
    48    30    31 1   
    49    30    32 ar  
    50    31    49 1   
    51    31    50 1   
    52    31    51 1   
    53    32    33 ar  
    54    33    34 1   
    55    34    52 1   
    56    34    53 1   
@<TRIPOS>SUBSTRUCTURE
     1 90N         1 TEMP              0 ****  ****    0 ROOT
