@<TRIPOS>MOLECULE
90O
   81    83     1     0     0
SMALL
abcg2


@<TRIPOS>ATOM
      1 C2          -1.3230     3.8710    -1.0670 c2         1 90O      -0.194200
      2 C3          -0.9210     2.7300    -0.4860 ce         1 90O      -0.083200
      3 C4          -1.8690     1.8930     0.3280 c5         1 90O      -0.021500
      4 C5          -3.3580     2.1910     0.0740 c5         1 90O      -0.037000
      5 C6          -3.5460     3.7160     0.0870 c6         1 90O      -0.068400
      6 O35          9.2590    -1.7490     1.8920 oh         1 90O      -0.665000
      7 C34          8.7360    -1.1870     0.7060 c3         1 90O       0.162600
      8 C32          6.6700    -0.2060    -0.3290 c3         1 90O      -0.062400
      9 C27          5.2510     0.3310    -0.1290 c6         1 90O      -0.041700
     10 C26          4.6470     0.9130    -1.4030 c6         1 90O       0.175300
     11 O31          5.5720     1.8060    -1.9890 oh         1 90O      -0.661000
     12 C25          3.3380     1.6290    -1.0890 c6         1 90O      -0.082200
     13 C28          4.2960    -0.7200     0.4390 c6         1 90O       0.208500
     14 O30          4.4190    -1.9100    -0.3290 oh         1 90O      -0.656000
     15 C29          2.8740    -0.2430     0.4560 c2         1 90O      -0.265200
     16 C24          2.4160     0.8170    -0.2250 cf         1 90O      -0.042200
     17 C23          1.0200     1.2110    -0.0940 cf         1 90O      -0.188000
     18 C22          0.4640     2.3050    -0.6400 ce         1 90O      -0.154000
     19 C7          -1.7090     2.0640     1.8440 c5         1 90O      -0.071400
     20 C8          -3.0210     1.5400     2.4370 c5         1 90O      -0.077400
     21 C9          -4.0880     1.5950     1.3160 c5         1 90O      -0.050700
     22 C10         -3.8390     1.6440    -1.2680 c3         1 90O      -0.080100
     23 C1          -2.7040     4.4260    -0.9670 c6         1 90O      -0.041200
     24 C12         -4.8230     0.2550     1.1210 c3         1 90O      -0.051700
     25 C14         -5.7300    -0.0060     2.3240 c3         1 90O      -0.090100
     26 C15         -3.9190    -0.9590     0.8650 c3         1 90O      -0.074400
     27 C16         -4.6220    -2.0760     0.0990 c3         1 90O      -0.074400
     28 C17         -3.7270    -3.2940    -0.0870 c3         1 90O      -0.102400
     29 C18         -4.3240    -4.4470    -0.9070 c3         1 90O       0.184000
     30 O21         -4.6720    -4.0030    -2.2140 oh         1 90O      -0.660000
     31 C20         -3.2980    -5.5770    -0.9980 c3         1 90O      -0.100100
     32 C19         -5.6120    -4.9710    -0.2860 c3         1 90O      -0.100100
     33 H1          -0.6090     4.4370    -1.6600 ha         1 90O       0.169000
     34 H2          -1.6910     0.8400     0.0780 hc         1 90O       0.055700
     35 H3          -4.6040     3.9570    -0.0560 hc         1 90O       0.041700
     36 H4          -3.2800     4.1080     1.0740 hc         1 90O       0.041700
     37 H5          10.1650    -2.0190     1.7210 ho         1 90O       0.441000
     38 H6           9.3030    -0.2960     0.4030 h1         1 90O       0.016700
     39 H7           8.7970    -1.8970    -0.1310 h1         1 90O       0.016700
     40 H8           6.7310    -1.6950     1.2410 hc         1 90O       0.049700
     41 H9           7.2240    -0.0850     1.7520 hc         1 90O       0.049700
     42 H10          7.3030     0.6170    -0.6690 hc         1 90O       0.053200
     43 H11          6.6810    -0.9470    -1.1340 hc         1 90O       0.053200
     44 H12          5.2990     1.1360     0.6180 hc         1 90O       0.059700
     45 H13          4.4380     0.0820    -2.0940 h1         1 90O       0.049700
     46 H14          5.2090     2.1030    -2.8290 ho         1 90O       0.442000
     47 H15          3.5640     2.5770    -0.5870 hc         1 90O       0.056200
     48 H16          2.8350     1.8930    -2.0240 hc         1 90O       0.056200
     49 H17          4.5930    -0.9220     1.4770 h1         1 90O       0.041700
     50 H18          3.8490    -2.5790     0.0630 ho         1 90O       0.441000
     51 H19          2.1820    -0.8120     1.0730 ha         1 90O       0.171000
     52 H20          0.4150     0.5570     0.5270 ha         1 90O       0.175000
     53 H21          1.0800     2.9620    -1.2490 ha         1 90O       0.169000
     54 H22         -0.8380     1.5370     2.2350 hc         1 90O       0.044700
     55 H23         -1.5650     3.1200     2.0820 hc         1 90O       0.044700
     56 H24         -2.8880     0.5140     2.7880 hc         1 90O       0.041700
     57 H25         -3.3220     2.1160     3.3130 hc         1 90O       0.041700
     58 H26         -4.8720     2.3050     1.6000 hc         1 90O       0.046700
     59 H27         -3.7270     0.5620    -1.3410 hc         1 90O       0.036033
     60 H28         -4.8920     1.8790    -1.4350 hc         1 90O       0.036033
     61 H29         -3.2770     2.0800    -2.0960 hc         1 90O       0.036033
     62 H30         -2.6480     5.4950    -0.7380 hc         1 90O       0.048700
     63 H31         -3.1820     4.3770    -1.9520 hc         1 90O       0.048700
     64 H32         -5.4760     0.3700     0.2480 hc         1 90O       0.049700
     65 H33         -6.4750     0.7840     2.4390 hc         1 90O       0.031700
     66 H34         -6.2700    -0.9490     2.2270 hc         1 90O       0.031700
     67 H35         -5.1540    -0.0550     3.2510 hc         1 90O       0.031700
     68 H36         -3.0270    -0.6710     0.3040 hc         1 90O       0.038200
     69 H37         -3.5460    -1.3550     1.8160 hc         1 90O       0.038200
     70 H38         -5.5370    -2.3630     0.6240 hc         1 90O       0.045200
     71 H39         -4.9380    -1.6950    -0.8770 hc         1 90O       0.045200
     72 H40         -2.7920    -2.9790    -0.5700 hc         1 90O       0.038700
     73 H41         -3.4360    -3.6810     0.8950 hc         1 90O       0.038700
     74 H42         -3.8760    -3.6610    -2.6350 ho         1 90O       0.438000
     75 H43         -3.6830    -6.4100    -1.5880 hc         1 90O       0.041200
     76 H44         -2.3720    -5.2300    -1.4640 hc         1 90O       0.041200
     77 H45         -3.0430    -5.9570    -0.0070 hc         1 90O       0.041200
     78 H46         -6.4010    -4.2180    -0.2880 hc         1 90O       0.041200
     79 H47         -5.9780    -5.8410    -0.8340 hc         1 90O       0.041200
     80 H48         -5.4440    -5.2750     0.7480 hc         1 90O       0.041200
     81 C33          7.2860    -0.8060     0.9300 c3         1 90O      -0.081400
@<TRIPOS>BOND
     1     1     2 2   
     2     1    23 1   
     3     1    33 1   
     4     2     3 1   
     5     2    18 1   
     6     3     4 1   
     7     3    19 1   
     8     3    34 1   
     9     4     5 1   
    10     4    21 1   
    11     4    22 1   
    12     5    23 1   
    13     5    35 1   
    14     5    36 1   
    15     6     7 1   
    16     6    37 1   
    17     7    38 1   
    18     7    39 1   
    19     7    81 1   
    20     8     9 1   
    21     8    42 1   
    22     8    43 1   
    23     8    81 1   
    24     9    10 1   
    25     9    13 1   
    26     9    44 1   
    27    10    11 1   
    28    10    12 1   
    29    10    45 1   
    30    11    46 1   
    31    12    16 1   
    32    12    47 1   
    33    12    48 1   
    34    13    14 1   
    35    13    15 1   
    36    13    49 1   
    37    14    50 1   
    38    15    16 2   
    39    15    51 1   
    40    16    17 1   
    41    17    18 2   
    42    17    52 1   
    43    18    53 1   
    44    19    20 1   
    45    19    54 1   
    46    19    55 1   
    47    20    21 1   
    48    20    56 1   
    49    20    57 1   
    50    21    24 1   
    51    21    58 1   
    52    22    59 1   
    53    22    60 1   
    54    22    61 1   
    55    23    62 1   
    56    23    63 1   
    57    24    25 1   
    58    24    26 1   
    59    24    64 1   
    60    25    65 1   
    61    25    66 1   
    62    25    67 1   
    63    26    27 1   
    64    26    68 1   
    65    26    69 1   
    66    27    28 1   
    67    27    70 1   
    68    27    71 1   
    69    28    29 1   
    70    28    72 1   
    71    28    73 1   
    72    29    30 1   
    73    29    31 1   
    74    29    32 1   
    75    30    74 1   
    76    31    75 1   
    77    31    76 1   
    78    31    77 1   
    79    32    78 1   
    80    32    79 1   
    81    32    80 1   
    82    40    81 1   
    83    41    81 1   
@<TRIPOS>SUBSTRUCTURE
     1 90O         1 TEMP              0 ****  ****    0 ROOT
