@<TRIPOS>MOLECULE
90O
   81    83     1     0     0
SMALL
No Charge or Current Charge


@<TRIPOS>ATOM
      1 C2          -1.2500     4.2700    -0.7330 c2         1 90O      -0.194200
      2 C3          -1.0000     2.9900    -0.3640 ce         1 90O      -0.083200
      3 C4          -2.0470     2.0010     0.2060 c5         1 90O      -0.021500
      4 C5          -3.4930     2.5410    -0.0750 c5         1 90O      -0.037000
      5 C6          -3.6160     4.0890     0.1660 c6         1 90O      -0.068400
      6 O35          9.0400    -2.4070     1.8390 oh         1 90O      -0.665000
      7 C34          8.5760    -1.6970     0.6870 c3         1 90O       0.162600
      8 C32          6.5510    -0.4390    -0.2890 c3         1 90O      -0.062400
      9 C27          5.1120     0.1520    -0.0800 c6         1 90O      -0.041700
     10 C26          4.6090     0.9830    -1.2990 c6         1 90O       0.175300
     11 O31          5.5740     1.9700    -1.6950 oh         1 90O      -0.661000
     12 C25          3.2700     1.6950    -0.9720 c6         1 90O      -0.082200
     13 C28          4.0520    -0.9390     0.2670 c6         1 90O       0.208500
     14 O30          4.0370    -1.9790    -0.7120 oh         1 90O      -0.656000
     15 C29          2.6500    -0.3700     0.3440 c2         1 90O      -0.265200
     16 C24          2.2670     0.8070    -0.2060 cf         1 90O      -0.042200
     17 C23          0.8830     1.2760    -0.0930 cf         1 90O      -0.188000
     18 C22          0.3920     2.4950    -0.4750 ce         1 90O      -0.154000
     19 C7          -1.9260     2.1030     1.7560 c5         1 90O      -0.071400
     20 C8          -3.3640     1.8040     2.2900 c5         1 90O      -0.077400
     21 C9          -4.3120     1.7340     1.0350 c5         1 90O      -0.050700
     22 C10         -3.9870     2.2440    -1.5230 c3         1 90O      -0.080100
     23 C1          -2.6230     4.9130    -0.6830 c6         1 90O      -0.041200
     24 C12         -4.9100     0.2830     0.7590 c3         1 90O      -0.051700
     25 C14         -5.8750    -0.1390     1.9020 c3         1 90O      -0.090100
     26 C15         -3.8650    -0.8350     0.4500 c3         1 90O      -0.074400
     27 C16         -4.4490    -2.2490     0.2080 c3         1 90O      -0.074400
     28 C17         -3.3720    -3.2710    -0.2450 c3         1 90O      -0.102400
     29 C18         -3.8770    -4.7110    -0.5620 c3         1 90O       0.184000
     30 O21         -4.8300    -4.6430    -1.6240 oh         1 90O      -0.660000
     31 C20         -2.7020    -5.5900    -1.0490 c3         1 90O      -0.100100
     32 C19         -4.5670    -5.3750     0.6540 c3         1 90O      -0.100100
     33 H1          -0.4500     4.9090    -1.1120 ha         1 90O       0.169000
     34 H2          -1.8940     0.9880    -0.1710 hc         1 90O       0.055700
     35 H3          -4.6410     4.4180    -0.0520 hc         1 90O       0.041700
     36 H4          -3.4500     4.3350     1.2230 hc         1 90O       0.041700
     37 H5           9.9630    -2.6890     1.6480 ho         1 90O       0.441000
     38 H6           9.2170    -0.8260     0.4940 h1         1 90O       0.016700
     39 H7           8.6090    -2.3450    -0.1980 h1         1 90O       0.016700
     40 H8           6.5000    -2.0980     1.1210 hc         1 90O       0.049700
     41 H9           7.0940    -0.5850     1.8090 hc         1 90O       0.049700
     42 H10          7.2500     0.3760    -0.5120 hc         1 90O       0.053200
     43 H11          6.5630    -1.0910    -1.1720 hc         1 90O       0.053200
     44 H12          5.1880     0.8310     0.7800 hc         1 90O       0.059700
     45 H13          4.4330     0.2860    -2.1340 h1         1 90O       0.049700
     46 H14          5.2250     2.3940    -2.5090 ho         1 90O       0.442000
     47 H15          3.4690     2.5890    -0.3640 hc         1 90O       0.056200
     48 H16          2.8180     2.0440    -1.9100 hc         1 90O       0.056200
     49 H17          4.3000    -1.3640     1.2510 h1         1 90O       0.041700
     50 H18          3.2750    -2.5540    -0.4890 ho         1 90O       0.441000
     51 H19          1.9240    -0.9720     0.8910 ha         1 90O       0.171000
     52 H20          0.1990     0.5600     0.3600 ha         1 90O       0.175000
     53 H21          1.0920     3.2090    -0.9060 ha         1 90O       0.169000
     54 H22         -1.1910     1.3950     2.1550 hc         1 90O       0.044700
     55 H23         -1.6000     3.0980     2.0800 hc         1 90O       0.044700
     56 H24         -3.3770     0.8790     2.8760 hc         1 90O       0.041700
     57 H25         -3.6870     2.5930     2.9790 hc         1 90O       0.041700
     58 H26         -5.2090     2.3260     1.2540 hc         1 90O       0.046700
     59 H27         -3.9310     1.1780    -1.7670 hc         1 90O       0.036033
     60 H28         -5.0290     2.5570    -1.6590 hc         1 90O       0.036033
     61 H29         -3.3820     2.7620    -2.2760 hc         1 90O       0.036033
     62 H30         -2.5440     5.9310    -0.2770 hc         1 90O       0.048700
     63 H31         -3.0060     5.0240    -1.7070 hc         1 90O       0.048700
     64 H32         -5.5430     0.3650    -0.1330 hc         1 90O       0.049700
     65 H33         -6.5530     0.6810     2.1670 hc         1 90O       0.031700
     66 H34         -6.5040    -0.9840     1.5980 hc         1 90O       0.031700
     67 H35         -5.3240    -0.4310     2.8030 hc         1 90O       0.031700
     68 H36         -3.3200    -0.5680    -0.4590 hc         1 90O       0.038200
     69 H37         -3.1290    -0.8880     1.2610 hc         1 90O       0.038200
     70 H38         -4.9110    -2.6090     1.1340 hc         1 90O       0.045200
     71 H39         -5.2400    -2.1850    -0.5490 hc         1 90O       0.045200
     72 H40         -2.8660    -2.8710    -1.1340 hc         1 90O       0.038700
     73 H41         -2.6050    -3.3330     0.5370 hc         1 90O       0.038700
     74 H42         -4.4080    -4.1360    -2.3500 ho         1 90O       0.438000
     75 H43         -3.0480    -6.5950    -1.3190 hc         1 90O       0.041200
     76 H44         -2.2170    -5.1510    -1.9290 hc         1 90O       0.041200
     77 H45         -1.9440    -5.6940    -0.2630 hc         1 90O       0.041200
     78 H46         -5.4840    -4.8440     0.9350 hc         1 90O       0.041200
     79 H47         -4.8430    -6.4120     0.4260 hc         1 90O       0.041200
     80 H48         -3.8970    -5.3860     1.5220 hc         1 90O       0.041200
     81 C33          7.1270    -1.2220     0.9170 c3         1 90O      -0.081400
@<TRIPOS>BOND
     1     1     2 2   
     2     1    23 1   
     3     1    33 1   
     4     2     3 1   
     5     2    18 1   
     6     3     4 1   
     7     3    19 1   
     8     3    34 1   
     9     4     5 1   
    10     4    21 1   
    11     4    22 1   
    12     5    23 1   
    13     5    35 1   
    14     5    36 1   
    15     6     7 1   
    16     6    37 1   
    17     7    38 1   
    18     7    39 1   
    19     7    81 1   
    20     8     9 1   
    21     8    42 1   
    22     8    43 1   
    23     8    81 1   
    24     9    10 1   
    25     9    13 1   
    26     9    44 1   
    27    10    11 1   
    28    10    12 1   
    29    10    45 1   
    30    11    46 1   
    31    12    16 1   
    32    12    47 1   
    33    12    48 1   
    34    13    14 1   
    35    13    15 1   
    36    13    49 1   
    37    14    50 1   
    38    15    16 2   
    39    15    51 1   
    40    16    17 1   
    41    17    18 2   
    42    17    52 1   
    43    18    53 1   
    44    19    20 1   
    45    19    54 1   
    46    19    55 1   
    47    20    21 1   
    48    20    56 1   
    49    20    57 1   
    50    21    24 1   
    51    21    58 1   
    52    22    59 1   
    53    22    60 1   
    54    22    61 1   
    55    23    62 1   
    56    23    63 1   
    57    24    25 1   
    58    24    26 1   
    59    24    64 1   
    60    25    65 1   
    61    25    66 1   
    62    25    67 1   
    63    26    27 1   
    64    26    68 1   
    65    26    69 1   
    66    27    28 1   
    67    27    70 1   
    68    27    71 1   
    69    28    29 1   
    70    28    72 1   
    71    28    73 1   
    72    29    30 1   
    73    29    31 1   
    74    29    32 1   
    75    30    74 1   
    76    31    75 1   
    77    31    76 1   
    78    31    77 1   
    79    32    78 1   
    80    32    79 1   
    81    32    80 1   
    82    40    81 1   
    83    41    81 1   
@<TRIPOS>SUBSTRUCTURE
     1 90O         1 TEMP              0 ****  ****    0 ROOT
