@<TRIPOS>MOLECULE
90P
   68    71     1     0     0
SMALL
bcc


@<TRIPOS>ATOM
      1 C4           1.0390     1.0110     0.2030 ca         1 90P       0.963900
      2 C5          -0.6170    -0.5720     0.2130 ca         1 90P       0.768200
      3 C6          -2.9790     0.1170     0.3580 c6         1 90P       0.234500
      4 N1          -0.2680     0.6940     0.2860 nb         1 90P      -0.868000
      5 C7          -4.2240    -0.4810     0.9960 c6         1 90P      -0.093400
      6 C8          -5.3530     0.5380     1.0140 c6         1 90P       0.169300
      7 N2          -1.9230    -0.8740     0.3070 nu         1 90P      -0.867900
      8 C10         -4.4930     1.6480    -0.9170 c6         1 90P       0.169300
      9 C11         -3.3330     0.6700    -1.0190 c6         1 90P      -0.093400
     10 C12          0.3690    -1.6060     0.0680 ca         1 90P      -0.354600
     11 N3          -5.6600     1.0230    -0.3200 n3         1 90P      -0.721600
     12 C13          0.0860    -2.9890     0.0090 ca         1 90P      -0.147000
     13 C14          1.0920    -3.9050    -0.1330 ca         1 90P       0.083100
     14 N4           1.3340     2.3350     0.2830 nh         1 90P      -0.780300
     15 C16          0.2870     3.3320     0.2740 c3         1 90P       0.226100
     16 C17          2.7200     2.7830     0.2720 c6         1 90P       0.241500
     17 C22          3.1860     3.1710    -1.1320 c6         1 90P      -0.087900
     18 C21          4.6530     3.5920    -1.1310 c6         1 90P      -0.071900
     19 C20          4.9110     4.7110    -0.1280 c6         1 90P      -0.077400
     20 C19          4.4420     4.3130     1.2680 c6         1 90P      -0.071900
     21 C18          2.9670     3.9190     1.2650 c6         1 90P      -0.087900
     22 N            2.0310     0.1530     0.0470 nb         1 90P      -0.825000
     23 C3           1.6950    -1.1540    -0.0080 ca         1 90P       0.513600
     24 C2           2.7270    -2.1120    -0.1570 ca         1 90P      -0.290300
     25 O1           0.9340    -5.2420    -0.1980 os         1 90P      -0.296900
     26 C1           2.4430    -3.4530    -0.2190 ca         1 90P       0.165100
     27 O            3.3530    -4.4250    -0.3550 os         1 90P      -0.295900
     28 C            4.7160    -4.0570    -0.4480 c3         1 90P       0.120700
     29 H1          -2.6260     0.9420     0.9820 h1         1 90P       0.081700
     30 H2          -4.5410    -1.3650     0.4330 hc         1 90P       0.053450
     31 H3          -4.0110    -0.8040     2.0180 hc         1 90P       0.053450
     32 H4          -6.2400     0.0720     1.4460 h1         1 90P       0.032950
     33 H5          -5.0780     1.3710     1.6860 h1         1 90P       0.032950
     34 H6          -2.2100    -1.8170     0.1040 hn         1 90P       0.433800
     35 H7          -6.6660     2.7510     0.3900 h1         1 90P       0.028700
     36 H8          -6.8500     2.3840    -1.3170 h1         1 90P       0.028700
     37 H10         -4.1710     2.5360    -0.3440 h1         1 90P       0.032950
     38 H11         -4.7600     2.0030    -1.9160 h1         1 90P       0.032950
     39 H12         -2.4670     1.1710    -1.4560 hc         1 90P       0.053450
     40 H13         -3.6070    -0.1560    -1.6810 hc         1 90P       0.053450
     41 H15         -0.9360    -3.3360     0.0820 ha         1 90P       0.126000
     42 H16         -0.8780    -5.4870     0.8010 h1         1 90P       0.037700
     43 H17         -0.9940    -5.3980    -0.9710 h1         1 90P       0.037700
     44 H18         -0.2980    -6.8350    -0.1960 h1         1 90P       0.037700
     45 H19         -0.0040     3.6450     1.2800 h1         1 90P       0.037700
     46 H20          0.6240     4.2170    -0.2660 h1         1 90P       0.037700
     47 H21         -0.6000     2.9560    -0.2280 h1         1 90P       0.037700
     48 H22          3.3210     1.9320     0.5950 h1         1 90P       0.087700
     49 H23          3.0360     2.3240    -1.8070 hc         1 90P       0.044700
     50 H24          2.5700     3.9950    -1.5110 hc         1 90P       0.044700
     51 H25          5.2770     2.7280    -0.8750 hc         1 90P       0.040700
     52 H26          4.9520     3.9020    -2.1350 hc         1 90P       0.040700
     53 H27          5.9730     4.9690    -0.1120 hc         1 90P       0.038200
     54 H28          4.3750     5.6120    -0.4450 hc         1 90P       0.038200
     55 H29          5.0450     3.4720     1.6280 hc         1 90P       0.040700
     56 H30          4.6030     5.1330     1.9720 hc         1 90P       0.040700
     57 H31          2.3730     4.7990     1.0010 hc         1 90P       0.044700
     58 H32          2.6520     3.6110     2.2660 hc         1 90P       0.044700
     59 H33          3.7430    -1.7450    -0.2180 ha         1 90P       0.155000
     60 H34          4.9050    -3.4230    -1.3190 h1         1 90P       0.043033
     61 H35          5.0560    -3.5340     0.4490 h1         1 90P       0.043033
     62 H36          5.2790    -4.9810    -0.5550 h1         1 90P       0.043033
     63 C23         -8.1250     1.2270    -0.0540 c3         1 90P      -0.090100
     64 H9          -8.1850     0.8200     0.9550 hc         1 90P       0.037033
     65 H14         -8.9460     1.9350    -0.1660 hc         1 90P       0.037033
     66 H37         -8.2860     0.4100    -0.7580 hc         1 90P       0.037033
     67 C9          -6.8010     1.9240    -0.3270 c3         1 90P       0.168800
     68 C15         -0.3810    -5.7520    -0.1370 c3         1 90P       0.121700
@<TRIPOS>BOND
     1     1     4 ar  
     2     1    14 1   
     3     1    22 ar  
     4     2     4 ar  
     5     2     7 1   
     6     2    10 ar  
     7     3     5 1   
     8     3     7 1   
     9     3     9 1   
    10     3    29 1   
    11     5     6 1   
    12     5    30 1   
    13     5    31 1   
    14     6    11 1   
    15     6    32 1   
    16     6    33 1   
    17     7    34 1   
    18     8     9 1   
    19     8    11 1   
    20     8    37 1   
    21     8    38 1   
    22     9    39 1   
    23     9    40 1   
    24    10    12 ar  
    25    10    23 ar  
    26    11    67 1   
    27    12    13 ar  
    28    12    41 1   
    29    13    25 1   
    30    13    26 ar  
    31    14    15 1   
    32    14    16 1   
    33    15    45 1   
    34    15    46 1   
    35    15    47 1   
    36    16    17 1   
    37    16    21 1   
    38    16    48 1   
    39    17    18 1   
    40    17    49 1   
    41    17    50 1   
    42    18    19 1   
    43    18    51 1   
    44    18    52 1   
    45    19    20 1   
    46    19    53 1   
    47    19    54 1   
    48    20    21 1   
    49    20    55 1   
    50    20    56 1   
    51    21    57 1   
    52    21    58 1   
    53    22    23 ar  
    54    23    24 ar  
    55    24    26 ar  
    56    24    59 1   
    57    25    68 1   
    58    26    27 1   
    59    27    28 1   
    60    28    60 1   
    61    28    61 1   
    62    28    62 1   
    63    35    67 1   
    64    36    67 1   
    65    42    68 1   
    66    43    68 1   
    67    44    68 1   
    68    63    64 1   
    69    63    65 1   
    70    63    66 1   
    71    63    67 1   
@<TRIPOS>SUBSTRUCTURE
     1 90P         1 TEMP              0 ****  ****    0 ROOT
