@<TRIPOS>MOLECULE
90P
   68    71     1     0     0
SMALL
No Charge or Current Charge


@<TRIPOS>ATOM
      1 C4           1.0610     1.0480     0.1710 ca         1 90P       0.437900
      2 C5          -0.5770    -0.5400     0.3500 ca         1 90P       0.439900
      3 C6          -3.0330     0.1510     0.5170 c6         1 90P       0.234500
      4 N1          -0.2320     0.7540     0.3760 nb         1 90P      -0.342000
      5 C7          -4.2900    -0.4650     1.1660 c6         1 90P      -0.093400
      6 C8          -5.4860     0.5090     1.0640 c6         1 90P       0.169300
      7 N2          -1.9270    -0.8250     0.5610 nu         1 90P      -0.923100
      8 C10         -4.5630     1.5000    -0.9910 c6         1 90P       0.169300
      9 C11         -3.3460     0.5490    -0.9430 c6         1 90P      -0.093400
     10 C12          0.3740    -1.5600     0.1200 ca         1 90P      -0.224000
     11 N3          -5.7640     0.8930    -0.3520 n3         1 90P      -0.721600
     12 C13          0.0400    -2.9360     0.0880 ca         1 90P      -0.129000
     13 C14          1.0400    -3.9060    -0.1480 ca         1 90P       0.083100
     14 N4           1.4120     2.4260     0.1890 nh         1 90P      -0.780300
     15 C16          0.3680     3.4760     0.0390 c3         1 90P       0.226100
     16 C17          2.8460     2.8570     0.2870 c6         1 90P       0.241500
     17 C22          3.4010     3.2700    -1.1040 c6         1 90P      -0.087900
     18 C21          4.8940     3.6760    -1.0120 c6         1 90P      -0.071900
     19 C20          5.1090     4.7990     0.0330 c6         1 90P      -0.077400
     20 C19          4.5520     4.3920     1.4200 c6         1 90P      -0.071900
     21 C18          3.0560     3.9970     1.3260 c6         1 90P      -0.087900
     22 N            2.0400     0.1500    -0.0580 nb         1 90P      -0.299000
     23 C3           1.7100    -1.1540    -0.0850 ca         1 90P       0.120000
     24 C2           2.7000    -2.1210    -0.3190 ca         1 90P      -0.207000
     25 O1           0.7510    -5.2620    -0.1870 os         1 90P      -0.320100
     26 C1           2.3780    -3.4950    -0.3530 ca         1 90P       0.165100
     27 O            3.3410    -4.4650    -0.5820 os         1 90P      -0.319100
     28 C            4.7260    -4.1440    -0.8010 c3         1 90P       0.143900
     29 H1          -2.7710     1.0570     1.0870 h1         1 90P       0.081700
     30 H2          -4.5500    -1.4110     0.6720 hc         1 90P       0.053450
     31 H3          -4.0950    -0.6980     2.2210 hc         1 90P       0.053450
     32 H4          -6.3600     0.0160     1.5140 h1         1 90P       0.032950
     33 H5          -5.2740     1.4050     1.6660 h1         1 90P       0.032950
     34 H6          -2.1640    -1.8120     0.5360 hn         1 90P       0.489000
     35 H7          -6.8340     2.6850     0.0610 h1         1 90P       0.028700
     36 H8          -7.0600     2.0410    -1.5660 h1         1 90P       0.028700
     37 H10         -4.3010     2.4440    -0.4900 h1         1 90P       0.032950
     38 H11         -4.7740     1.7420    -2.0440 h1         1 90P       0.032950
     39 H12         -2.4790     1.0430    -1.3990 hc         1 90P       0.053450
     40 H13         -3.5560    -0.3450    -1.5440 hc         1 90P       0.053450
     41 H15         -0.9870    -3.2460     0.2450 ha         1 90P       0.108000
     42 H16         -0.9600    -5.5060     0.9990 h1         1 90P       0.037700
     43 H17         -1.2630    -5.3910    -0.7560 h1         1 90P       0.037700
     44 H18         -0.5720    -6.8740    -0.0650 h1         1 90P       0.037700
     45 H19         -0.1030     3.6900     1.0070 h1         1 90P       0.037700
     46 H20          0.7910     4.4080    -0.3580 h1         1 90P       0.037700
     47 H21         -0.4100     3.1560    -0.6680 h1         1 90P       0.037700
     48 H22          3.4660     2.0210     0.6480 h1         1 90P       0.087700
     49 H23          3.2900     2.4370    -1.8110 hc         1 90P       0.044700
     50 H24          2.8190     4.1070    -1.5130 hc         1 90P       0.044700
     51 H25          5.4990     2.7990    -0.7430 hc         1 90P       0.040700
     52 H26          5.2500     4.0100    -1.9960 hc         1 90P       0.040700
     53 H27          6.1800     5.0310     0.1160 hc         1 90P       0.038200
     54 H28          4.6160     5.7200    -0.3070 hc         1 90P       0.038200
     55 H29          5.1340     3.5500     1.8210 hc         1 90P       0.040700
     56 H30          4.6750     5.2220     2.1300 hc         1 90P       0.040700
     57 H31          2.4740     4.8880     1.0570 hc         1 90P       0.044700
     58 H32          2.6980     3.6720     2.3120 hc         1 90P       0.044700
     59 H33          3.7200    -1.7830    -0.4730 ha         1 90P       0.137000
     60 H34          4.8440    -3.5080    -1.6870 h1         1 90P       0.043033
     61 H35          5.1470    -3.6220     0.0680 h1         1 90P       0.043033
     62 H36          5.3070    -5.0600    -0.9610 h1         1 90P       0.043033
     63 C23         -8.2920     1.0980    -0.0900 c3         1 90P      -0.090100
     64 H9          -8.3340     0.9340     0.9920 hc         1 90P       0.037033
     65 H14         -9.1320     1.7460    -0.3630 hc         1 90P       0.037033
     66 H37         -8.4240     0.1350    -0.5980 hc         1 90P       0.037033
     67 C9          -6.9610     1.7550    -0.5100 c3         1 90P       0.168800
     68 C15         -0.5770    -5.7790     0.0080 c3         1 90P       0.144900
@<TRIPOS>BOND
     1     1     4 ar  
     2     1    14 1   
     3     1    22 ar  
     4     2     4 ar  
     5     2     7 1   
     6     2    10 ar  
     7     3     5 1   
     8     3     7 1   
     9     3     9 1   
    10     3    29 1   
    11     5     6 1   
    12     5    30 1   
    13     5    31 1   
    14     6    11 1   
    15     6    32 1   
    16     6    33 1   
    17     7    34 1   
    18     8     9 1   
    19     8    11 1   
    20     8    37 1   
    21     8    38 1   
    22     9    39 1   
    23     9    40 1   
    24    10    12 ar  
    25    10    23 ar  
    26    11    67 1   
    27    12    13 ar  
    28    12    41 1   
    29    13    25 1   
    30    13    26 ar  
    31    14    15 1   
    32    14    16 1   
    33    15    45 1   
    34    15    46 1   
    35    15    47 1   
    36    16    17 1   
    37    16    21 1   
    38    16    48 1   
    39    17    18 1   
    40    17    49 1   
    41    17    50 1   
    42    18    19 1   
    43    18    51 1   
    44    18    52 1   
    45    19    20 1   
    46    19    53 1   
    47    19    54 1   
    48    20    21 1   
    49    20    55 1   
    50    20    56 1   
    51    21    57 1   
    52    21    58 1   
    53    22    23 ar  
    54    23    24 ar  
    55    24    26 ar  
    56    24    59 1   
    57    25    68 1   
    58    26    27 1   
    59    27    28 1   
    60    28    60 1   
    61    28    61 1   
    62    28    62 1   
    63    35    67 1   
    64    36    67 1   
    65    42    68 1   
    66    43    68 1   
    67    44    68 1   
    68    63    64 1   
    69    63    65 1   
    70    63    66 1   
    71    63    67 1   
@<TRIPOS>SUBSTRUCTURE
     1 90P         1 TEMP              0 ****  ****    0 ROOT
