@<TRIPOS>MOLECULE
90Q
   32    34     1     0     0
SMALL
No Charge or Current Charge


@<TRIPOS>ATOM
      1 CAA        -23.1540     0.8920    -4.6030 ca         1 90Q       0.262100
      2 CAB        -22.1430     0.4310    -3.7430 ca         1 90Q      -0.423600
      3 CAC        -24.2870     1.5270    -4.0850 ca         1 90Q      -0.248000
      4 CAD        -22.3060     0.5820    -2.3570 ca         1 90Q       0.297100
      5 CAE        -24.4300     1.6820    -2.7060 ca         1 90Q       0.252100
      6 CAF        -23.4430     1.2050    -1.8400 ca         1 90Q      -0.321000
      7 CAH        -22.1300    -0.2230    -6.5010 c6         1 90Q       0.237600
      8 CAI        -20.9220    -0.1880    -4.3360 c          1 90Q       0.614700
      9 CAJ        -20.7610    -0.0570    -5.8370 c6         1 90Q      -0.206400
     10 CAN        -22.0700    -0.0530    -8.0220 ca         1 90Q      -0.130300
     11 CAO        -22.2490    -1.1690    -8.8650 ca         1 90Q      -0.048000
     12 CAP        -21.8330     1.2150    -8.5930 ca         1 90Q      -0.027000
     13 CAQ        -22.1910    -1.0180   -10.2620 ca         1 90Q      -0.147000
     14 CAR        -21.7760     1.3640    -9.9900 ca         1 90Q       0.011000
     15 CAS        -21.9550     0.2440   -10.8270 ca         1 90Q       0.171100
     16 OAG        -23.0540     0.7410    -5.9660 os         1 90Q      -0.335100
     17 OAK        -25.5360     2.2930    -2.2070 oh         1 90Q      -0.520100
     18 OAL        -21.3610     0.1310    -1.4990 oh         1 90Q      -0.538100
     19 OAM        -20.1140    -0.8010    -3.6500 o          1 90Q      -0.577100
     20 OAT        -21.9020     0.3720   -12.1860 oh         1 90Q      -0.523100
     21 ClA        -21.4780     2.9630   -10.6770 cl         1 90Q      -0.202000
     22 H1         -25.0580     1.8910    -4.7570 ha         1 90Q       0.151000
     23 H2         -23.5480     1.3160    -0.7650 ha         1 90Q       0.137000
     24 H3         -22.5170    -1.2260    -6.2660 h1         1 90Q       0.059700
     25 H4         -20.0010    -0.7540    -6.2100 hc         1 90Q       0.089200
     26 H5         -20.4360     0.9730    -6.0310 hc         1 90Q       0.089200
     27 H6         -22.4320    -2.1550    -8.4400 ha         1 90Q       0.122000
     28 H7         -21.6960     2.0860    -7.9560 ha         1 90Q       0.137000
     29 H8         -22.3300    -1.8820   -10.9070 ha         1 90Q       0.137000
     30 H9         -25.4570     2.3060    -1.2310 ho         1 90Q       0.476000
     31 H10        -20.6890    -0.3260    -2.0630 ho         1 90Q       0.519000
     32 H11        -21.7310     1.3180   -12.3900 ho         1 90Q       0.483000
@<TRIPOS>BOND
     1     1     2 ar  
     2     1     3 ar  
     3     1    16 1   
     4     2     4 ar  
     5     2     8 1   
     6     3     5 ar  
     7     3    22 1   
     8     4     6 ar  
     9     4    18 1   
    10     5     6 ar  
    11     5    17 1   
    12     6    23 1   
    13     7     9 1   
    14     7    10 1   
    15     7    16 1   
    16     7    24 1   
    17     8     9 1   
    18     8    19 2   
    19     9    25 1   
    20     9    26 1   
    21    10    11 ar  
    22    10    12 ar  
    23    11    13 ar  
    24    11    27 1   
    25    12    14 ar  
    26    12    28 1   
    27    13    15 ar  
    28    13    29 1   
    29    14    15 ar  
    30    14    21 1   
    31    15    20 1   
    32    17    30 1   
    33    18    31 1   
    34    20    32 1   
@<TRIPOS>SUBSTRUCTURE
     1 90Q         1 TEMP              0 ****  ****    0 ROOT
