@<TRIPOS>MOLECULE
90Q
   32    34     1     0     0
SMALL
abcg2


@<TRIPOS>ATOM
      1 CAA        -23.1310     0.9110    -4.6390 ca         1 90Q       0.262100
      2 CAB        -22.1170     0.4230    -3.7880 ca         1 90Q      -0.423600
      3 CAC        -24.2740     1.4950    -4.1350 ca         1 90Q      -0.248000
      4 CAD        -22.3070     0.5260    -2.3880 ca         1 90Q       0.297100
      5 CAE        -24.4240     1.5930    -2.7490 ca         1 90Q       0.252100
      6 CAF        -23.4560     1.1060    -1.8730 ca         1 90Q      -0.321000
      7 CAH        -22.1170    -0.1560    -6.4850 c6         1 90Q       0.237600
      8 CAI        -20.8780    -0.0740    -4.3350 c          1 90Q       0.614700
      9 CAJ        -20.7530    -0.0130    -5.8320 c6         1 90Q      -0.206400
     10 CAN        -22.0790    -0.0060    -7.9770 ca         1 90Q      -0.130300
     11 CAO        -22.3630    -1.0870    -8.8030 ca         1 90Q      -0.048000
     12 CAP        -21.7470     1.2110    -8.5600 ca         1 90Q      -0.027000
     13 CAQ        -22.3150    -0.9670   -10.1800 ca         1 90Q      -0.147000
     14 CAR        -21.7060     1.3300    -9.9370 ca         1 90Q       0.011000
     15 CAS        -21.9900     0.2480   -10.7750 ca         1 90Q       0.171100
     16 OAG        -23.0180     0.8300    -5.9730 os         1 90Q      -0.335100
     17 OAK        -25.5490     2.1620    -2.3110 oh         1 90Q      -0.520100
     18 OAL        -21.3860     0.0800    -1.5440 oh         1 90Q      -0.538100
     19 OAM        -19.9590    -0.4880    -3.6280 o          1 90Q      -0.577100
     20 OAT        -21.9680     0.3150   -12.1110 oh         1 90Q      -0.523100
     21 CLA        -21.2940     2.8550   -10.6570 cl         1 90Q      -0.202000
     22 H1         -25.0470     1.8580    -4.7980 ha         1 90Q       0.151000
     23 H2         -23.5850     1.1810    -0.8000 ha         1 90Q       0.137000
     24 H3         -22.5200    -1.1470    -6.2380 h1         1 90Q       0.059700
     25 H4         -20.0830    -0.7960    -6.1860 hc         1 90Q       0.089200
     26 H5         -20.2970     0.9490    -6.0960 hc         1 90Q       0.089200
     27 H6         -22.6300    -2.0420    -8.3660 ha         1 90Q       0.122000
     28 H7         -21.5200     2.0770    -7.9510 ha         1 90Q       0.137000
     29 H8         -22.5400    -1.8170   -10.8120 ha         1 90Q       0.137000
     30 H9         -25.5740     2.1830    -1.3460 ho         1 90Q       0.476000
     31 H10        -20.6300    -0.2620    -2.0750 ho         1 90Q       0.519000
     32 H11        -21.7330     1.2000   -12.4180 ho         1 90Q       0.483000
@<TRIPOS>BOND
     1     1     2 ar  
     2     1     3 ar  
     3     1    16 1   
     4     2     4 ar  
     5     2     8 1   
     6     3     5 ar  
     7     3    22 1   
     8     4     6 ar  
     9     4    18 1   
    10     5     6 ar  
    11     5    17 1   
    12     6    23 1   
    13     7     9 1   
    14     7    10 1   
    15     7    16 1   
    16     7    24 1   
    17     8     9 1   
    18     8    19 2   
    19     9    25 1   
    20     9    26 1   
    21    10    11 ar  
    22    10    12 ar  
    23    11    13 ar  
    24    11    27 1   
    25    12    14 ar  
    26    12    28 1   
    27    13    15 ar  
    28    13    29 1   
    29    14    15 ar  
    30    14    21 1   
    31    15    20 1   
    32    17    30 1   
    33    18    31 1   
    34    20    32 1   
@<TRIPOS>SUBSTRUCTURE
     1 90Q         1 TEMP              0 ****  ****    0 ROOT
