@<TRIPOS>MOLECULE
90R
   22    23     1     0     0
SMALL
No Charge or Current Charge


@<TRIPOS>ATOM
      1 O3           0.6220    -2.6590     0.2150 o          1 90R      -0.559100
      2 C5           0.0100    -1.6010     0.1370 c          1 90R       0.593900
      3 C2           0.7280    -0.2780     0.0650 ca         1 90R      -0.267600
      4 C6           2.1420    -0.2130     0.0870 ca         1 90R       0.218100
      5 O1           2.8960    -1.3420     0.1730 oh         1 90R      -0.535100
      6 C9           2.8000     1.0220     0.0200 ca         1 90R      -0.148000
      7 C10          2.0650     2.2100    -0.0690 ca         1 90R      -0.053000
      8 C8           0.6640     2.1630    -0.0920 ca         1 90R      -0.108000
      9 C1          -0.0230     0.9280    -0.0250 ca         1 90R      -0.087600
     10 C4          -1.5440     0.9240    -0.0530 c          1 90R       0.565900
     11 O2          -2.1800     1.9710    -0.1310 o          1 90R      -0.497100
     12 C3          -2.2060    -0.4120     0.0200 cc         1 90R      -0.111400
     13 C11         -3.7180    -0.4010    -0.0080 c3         1 90R      -0.057900
     14 C7          -1.4590    -1.5730     0.1080 cd         1 90R      -0.251200
     15 H1           2.2550    -2.0970     0.2090 ho         1 90R       0.516000
     16 H2           3.8870     1.0570     0.0370 ha         1 90R       0.137000
     17 H3           2.5790     3.1680    -0.1210 ha         1 90R       0.123000
     18 H4           0.1100     3.0970    -0.1620 ha         1 90R       0.140000
     19 H8          -4.0920     0.0540    -0.9330 hc         1 90R       0.058367
     20 H9          -4.1270    -1.4170     0.0500 hc         1 90R       0.058367
     21 H10         -4.1240     0.1670     0.8380 hc         1 90R       0.058367
     22 H11         -1.9210    -2.5520     0.1620 ha         1 90R       0.207000
@<TRIPOS>BOND
     1     1     2 2   
     2     2     3 1   
     3     2    14 1   
     4     3     4 ar  
     5     3     9 ar  
     6     4     5 1   
     7     4     6 ar  
     8     5    15 1   
     9     6     7 ar  
    10     6    16 1   
    11     7     8 ar  
    12     7    17 1   
    13     8     9 ar  
    14     8    18 1   
    15     9    10 1   
    16    10    11 2   
    17    10    12 1   
    18    12    13 1   
    19    12    14 2   
    20    13    19 1   
    21    13    20 1   
    22    13    21 1   
    23    14    22 1   
@<TRIPOS>SUBSTRUCTURE
     1 90R         1 TEMP              0 ****  ****    0 ROOT
