@<TRIPOS>MOLECULE
90R
   22    23     1     0     0
SMALL
bcc


@<TRIPOS>ATOM
      1 O3           0.6090    -2.6100     0.1960 o          1 90R      -0.559100
      2 C5           0.0050    -1.5420     0.1230 c          1 90R       0.593900
      3 C2           0.7110    -0.2640     0.0570 ca         1 90R      -0.267600
      4 C6           2.1140    -0.2270     0.0840 ca         1 90R       0.218100
      5 O1           2.8600    -1.3220     0.1660 oh         1 90R      -0.496100
      6 C9           2.7660     1.0110     0.0250 ca         1 90R      -0.166000
      7 C10          2.0350     2.1750    -0.0570 ca         1 90R      -0.071000
      8 C8           0.6400     2.1500    -0.0860 ca         1 90R      -0.126000
      9 C1          -0.0150     0.9360    -0.0290 ca         1 90R      -0.087600
     10 C4          -1.4990     0.9060    -0.0610 c          1 90R       0.565900
     11 O2          -2.1510     1.9250    -0.1530 o          1 90R      -0.497100
     12 C3          -2.1860    -0.4120     0.0210 cc         1 90R      -0.111400
     13 C11         -3.6750    -0.4090     0.0010 c3         1 90R      -0.057900
     14 C7          -1.4600    -1.5350     0.1040 cd         1 90R      -0.201200
     15 H1           2.2610    -2.0990     0.2000 ho         1 90R       0.477000
     16 H2           3.8480     1.0400     0.0460 ha         1 90R       0.155000
     17 H3           2.5530     3.1240    -0.1010 ha         1 90R       0.141000
     18 H4           0.0820     3.0730    -0.1530 ha         1 90R       0.158000
     19 H8          -4.0500     0.0150    -0.9320 hc         1 90R       0.058367
     20 H9          -4.0660    -1.4180     0.1020 hc         1 90R       0.058367
     21 H10         -4.0760     0.2010     0.8110 hc         1 90R       0.058367
     22 H11         -1.9420    -2.5040     0.1630 ha         1 90R       0.157000
@<TRIPOS>BOND
     1     1     2 2   
     2     2     3 1   
     3     2    14 1   
     4     3     4 ar  
     5     3     9 ar  
     6     4     5 1   
     7     4     6 ar  
     8     5    15 1   
     9     6     7 ar  
    10     6    16 1   
    11     7     8 ar  
    12     7    17 1   
    13     8     9 ar  
    14     8    18 1   
    15     9    10 1   
    16    10    11 2   
    17    10    12 1   
    18    12    13 1   
    19    12    14 2   
    20    13    19 1   
    21    13    20 1   
    22    13    21 1   
    23    14    22 1   
@<TRIPOS>SUBSTRUCTURE
     1 90R         1 TEMP              0 ****  ****    0 ROOT
