@<TRIPOS>MOLECULE
90S
   39    41     1     0     0
SMALL
abcg2


@<TRIPOS>ATOM
      1 C4         -49.0630    46.8170    14.9950 cc         1 90S       0.249300
      2 C14        -49.9510    41.6920    19.1290 c5         1 90S      -0.109400
      3 C5         -49.0110    45.6890    15.8390 cc         1 90S      -0.187000
      4 C6         -50.3190    45.4810    16.2570 cd         1 90S      -0.214600
      5 C10        -51.0500    44.4870    17.0750 c          1 90S       0.638700
      6 C13        -51.0760    42.5670    18.5800 c5         1 90S       0.097000
      7 C15        -48.7710    42.6610    19.2870 c5         1 90S       0.084300
      8 C16        -48.9150    43.5780    18.0750 c5         1 90S       0.091000
      9 C18        -49.5500    44.5050    20.8550 cc         1 90S      -0.123000
     10 C19        -49.3740    44.7090    22.2080 cd         1 90S      -0.150900
     11 C2         -47.9350    47.4820    14.2610 c3         1 90S      -0.093000
     12 C20        -48.5430    43.6680    22.6510 cd         1 90S       0.278900
     13 N12        -50.3610    43.6090    17.8260 n          1 90S      -0.416800
     14 N17        -48.8390    43.3940    20.5520 na         1 90S       0.115800
     15 N21        -48.2280    42.8690    21.6340 nc         1 90S      -0.525800
     16 N7         -51.0510    46.4570    15.6660 na         1 90S       0.027800
     17 N9         -50.3160    47.2750    14.9040 nd         1 90S      -0.496800
     18 O11        -52.2890    44.4800    17.0420 o          1 90S      -0.617100
     19 H1         -50.2120    41.2050    20.0650 hc         1 90S       0.075700
     20 H2         -49.6740    40.9280    18.4020 hc         1 90S       0.075700
     21 H3         -48.1390    45.1100    16.0780 ha         1 90S       0.141000
     22 H4         -51.6680    43.0240    19.3760 h1         1 90S       0.068700
     23 H5         -51.7560    42.0260    17.9250 h1         1 90S       0.068700
     24 H6         -46.4850    47.0260    12.7120 hc         1 90S       0.036533
     25 H7         -46.8170    45.6740    13.7990 hc         1 90S       0.036533
     26 H9         -47.9980    46.1190    12.5610 hc         1 90S       0.036533
     27 H10        -47.3680    48.7700    15.9270 hc         1 90S       0.036533
     28 H11        -46.4410    47.2670    15.8280 hc         1 90S       0.036533
     29 H12        -46.1130    48.5820    14.6920 hc         1 90S       0.036533
     30 H13        -47.8120    42.1530    19.2910 h1         1 90S       0.102700
     31 H14        -48.3820    43.1370    17.2320 h1         1 90S       0.070700
     32 H15        -48.5200    44.5750    18.2570 h1         1 90S       0.070700
     33 H16        -50.1130    45.0600    20.1250 h4         1 90S       0.172000
     34 H17        -48.3750    48.3070    13.6950 hc         1 90S       0.067700
     35 H18        -48.1670    43.4800    23.6440 h4         1 90S       0.051100
     36 H8         -52.0490    46.5760    15.7500 hn         1 90S       0.395000
     37 BR2        -50.0950    46.1150    23.2380 br         1 90S      -0.057100
     38 C3         -47.2710    46.5160    13.2720 c3         1 90S      -0.083600
     39 C1         -46.9030    48.0630    15.2380 c3         1 90S      -0.083600
@<TRIPOS>BOND
     1     1     3 1   
     2     1    11 1   
     3     1    17 2   
     4     2     6 1   
     5     2     7 1   
     6     2    19 1   
     7     2    20 1   
     8     3     4 2   
     9     3    21 1   
    10     4     5 1   
    11     4    16 1   
    12     5    13 1   
    13     5    18 2   
    14     6    13 1   
    15     6    22 1   
    16     6    23 1   
    17     7     8 1   
    18     7    14 1   
    19     7    30 1   
    20     8    13 1   
    21     8    31 1   
    22     8    32 1   
    23     9    10 2   
    24     9    14 1   
    25     9    33 1   
    26    10    12 1   
    27    10    37 1   
    28    11    34 1   
    29    11    38 1   
    30    11    39 1   
    31    12    15 2   
    32    12    35 1   
    33    14    15 1   
    34    16    17 1   
    35    16    36 1   
    36    24    38 1   
    37    25    38 1   
    38    26    38 1   
    39    27    39 1   
    40    28    39 1   
    41    29    39 1   
@<TRIPOS>SUBSTRUCTURE
     1 90S         1 TEMP              0 ****  ****    0 ROOT
