@<TRIPOS>MOLECULE
90S
   39    41     1     0     0
SMALL
No Charge or Current Charge


@<TRIPOS>ATOM
      1 C4         -49.1770    46.8720    14.9480 cc         1 90S       0.249300
      2 C14        -49.8140    41.6810    18.9920 c5         1 90S      -0.109400
      3 C5         -49.2090    45.7640    15.8080 cc         1 90S      -0.187000
      4 C6         -50.5170    45.5630    16.1710 cd         1 90S      -0.214600
      5 C10        -51.1710    44.5320    17.0420 c          1 90S       0.638700
      6 C13        -51.0350    42.5440    18.5890 c5         1 90S       0.097000
      7 C15        -48.7220    42.7530    19.2550 c5         1 90S       0.084300
      8 C16        -48.9320    43.6820    18.0220 c5         1 90S       0.091000
      9 C18        -49.5760    44.5450    20.8880 cc         1 90S      -0.123000
     10 C19        -49.3260    44.7380    22.2140 cd         1 90S      -0.150900
     11 C2         -47.9020    47.4040    14.3340 c3         1 90S      -0.093000
     12 C20        -48.4390    43.7230    22.6280 cd         1 90S       0.278900
     13 N12        -50.3960    43.6180    17.7980 n          1 90S      -0.416800
     14 N17        -48.8210    43.4150    20.5690 na         1 90S       0.115800
     15 N21        -48.1160    42.9030    21.6440 nc         1 90S      -0.525800
     16 N7         -51.2060    46.5700    15.4760 na         1 90S       0.027800
     17 N9         -50.3650    47.3910    14.7240 nd         1 90S      -0.496800
     18 O11        -52.3930    44.4840    17.1060 o          1 90S      -0.617100
     19 H1         -50.0130    41.0490    19.8650 hc         1 90S       0.075700
     20 H2         -49.5200    41.0160    18.1710 hc         1 90S       0.075700
     21 H3         -48.3250    45.2000    16.0720 ha         1 90S       0.141000
     22 H4         -51.5500    42.9580    19.4670 h1         1 90S       0.068700
     23 H5         -51.7640    41.9700    18.0010 h1         1 90S       0.068700
     24 H6         -46.3680    46.8080    12.8910 hc         1 90S       0.036533
     25 H7         -46.9210    45.4830    13.9380 hc         1 90S       0.036533
     26 H9         -47.9530    46.0600    12.6110 hc         1 90S       0.036533
     27 H10        -47.3840    48.6610    16.0460 hc         1 90S       0.036533
     28 H11        -46.5710    47.0810    16.0470 hc         1 90S       0.036533
     29 H12        -46.0290    48.3610    14.9400 hc         1 90S       0.036533
     30 H13        -47.7260    42.2940    19.1950 h1         1 90S       0.102700
     31 H14        -48.3950    43.2840    17.1510 h1         1 90S       0.070700
     32 H15        -48.5770    44.7000    18.2270 h1         1 90S       0.070700
     33 H16        -50.1950    45.0840    20.1810 h4         1 90S       0.172000
     34 H17        -48.1650    48.2740    13.7180 hc         1 90S       0.067700
     35 H18        -48.0240    43.5610    23.6150 h4         1 90S       0.051100
     36 H8         -52.2150    46.7210    15.4990 hn         1 90S       0.395000
     37 Br2        -50.0320    46.1050    23.3040 br         1 90S      -0.057100
     38 C3         -47.2450    46.3750    13.3870 c3         1 90S      -0.083600
     39 C1         -46.9100    47.9060    15.4080 c3         1 90S      -0.083600
@<TRIPOS>BOND
     1     1     3 1   
     2     1    11 1   
     3     1    17 2   
     4     2     6 1   
     5     2     7 1   
     6     2    19 1   
     7     2    20 1   
     8     3     4 2   
     9     3    21 1   
    10     4     5 1   
    11     4    16 1   
    12     5    13 1   
    13     5    18 2   
    14     6    13 1   
    15     6    22 1   
    16     6    23 1   
    17     7     8 1   
    18     7    14 1   
    19     7    30 1   
    20     8    13 1   
    21     8    31 1   
    22     8    32 1   
    23     9    10 2   
    24     9    14 1   
    25     9    33 1   
    26    10    12 1   
    27    10    37 1   
    28    11    34 1   
    29    11    38 1   
    30    11    39 1   
    31    12    15 2   
    32    12    35 1   
    33    14    15 1   
    34    16    17 1   
    35    16    36 1   
    36    24    38 1   
    37    25    38 1   
    38    26    38 1   
    39    27    39 1   
    40    28    39 1   
    41    29    39 1   
@<TRIPOS>SUBSTRUCTURE
     1 90S         1 TEMP              0 ****  ****    0 ROOT
