@<TRIPOS>MOLECULE
90T
   53    56     1     0     0
SMALL
bcc


@<TRIPOS>ATOM
      1 OAV         -9.2800    -2.3400    -1.1250 o          1 90T      -0.832300
      2 CAU         -8.6180    -2.5270    -0.0840 c          1 90T       0.937600
      3 OAW         -8.6970    -3.5060     0.6840 o          1 90T      -0.832300
      4 CAT         -7.6250    -1.4280     0.3150 c5         1 90T      -0.208700
      5 CAX         -7.1680    -0.5270    -0.8260 c5         1 90T       0.112000
      6 CAS         -6.3100    -1.9220     0.9100 c5         1 90T      -0.066400
      7 CAR         -5.4050    -0.7010     0.8340 c5         1 90T       0.091000
      8 NAQ         -5.8910     0.0070    -0.3540 n          1 90T      -0.463800
      9 CAP         -5.3780     1.1320    -0.8580 c          1 90T       0.665700
     10 OAY         -5.8960     1.7580    -1.7770 o          1 90T      -0.618100
     11 CAO         -4.1090     1.6370    -0.2400 ca         1 90T      -0.092600
     12 CAZ         -2.9150     0.9600    -0.4240 ca         1 90T      -0.153000
     13 CAN         -4.1270     2.8430     0.4550 ca         1 90T      -0.112000
     14 CAM         -2.9430     3.3370     0.9760 ca         1 90T      -0.116000
     15 CAL         -1.7380     2.6710     0.8000 ca         1 90T      -0.143000
     16 CAK         -1.7190     1.4720     0.0860 ca         1 90T       0.139600
     17 NAJ         -0.5700     0.7200    -0.1610 nu         1 90T      -0.718300
     18 CAI          0.7130     0.9990     0.1440 cc         1 90T       0.754300
     19 SBA          1.9600    -0.1170    -0.3470 ss         1 90T      -0.261300
     20 NAH          1.1470     2.0500     0.7790 nd         1 90T      -0.737000
     21 CAG          2.4940     2.0160     0.9050 cd         1 90T       0.470200
     22 CAF          3.1370     0.9380     0.3800 cc         1 90T      -0.271000
     23 CAE          4.5850     0.7180     0.4150 c          1 90T       0.732700
     24 OBB          5.3500     1.6010     0.7610 o          1 90T      -0.580100
     25 NAD          5.0160    -0.5160     0.0420 ns         1 90T      -0.495100
     26 CAC          6.3840    -0.8500     0.0210 ca         1 90T       0.057600
     27 CAB          7.2240    -0.3250    -0.9590 ca         1 90T       0.041400
     28 CL1          6.5760     0.7250    -2.1680 cl         1 90T      -0.089400
     29 CBG          8.5720    -0.6440    -0.9970 ca         1 90T      -0.121000
     30 CBF          9.0810    -1.5150    -0.0470 ca         1 90T      -0.122000
     31 CBE          8.2530    -2.0540     0.9250 ca         1 90T      -0.123000
     32 CBC          6.9020    -1.7250     0.9800 ca         1 90T      -0.075300
     33 CBD          6.0110    -2.2980     2.0420 c3         1 90T      -0.048800
     34 H2          -8.1200    -0.7970     1.0660 hc         1 90T       0.036700
     35 H3          -7.0250    -1.0920    -1.7510 h1         1 90T       0.061200
     36 H4          -7.8690     0.2800    -1.0370 h1         1 90T       0.061200
     37 H5          -6.4080    -2.2910     1.9290 hc         1 90T       0.052200
     38 H6          -5.9000    -2.7310     0.3000 hc         1 90T       0.052200
     39 H7          -5.5110    -0.0700     1.7220 h1         1 90T       0.025700
     40 H8          -4.3540    -0.9710     0.7430 h1         1 90T       0.025700
     41 H9          -2.9020     0.0290    -0.9800 ha         1 90T       0.138000
     42 H10         -5.0550     3.3820     0.5930 ha         1 90T       0.147000
     43 H11         -2.9480     4.2670     1.5310 ha         1 90T       0.129000
     44 H12         -0.8300     3.0820     1.2090 ha         1 90T       0.164000
     45 H13         -0.7300    -0.1390    -0.6660 hn         1 90T       0.453800
     46 H14          2.9990     2.8260     1.4130 h4         1 90T       0.056100
     47 H15          4.3570    -1.2750    -0.0490 hn         1 90T       0.327500
     48 H16          9.2100    -0.2230    -1.7620 ha         1 90T       0.147000
     49 H17         10.1310    -1.7750    -0.0710 ha         1 90T       0.133000
     50 H18          8.6640    -2.7310     1.6640 ha         1 90T       0.133000
     51 H19          5.2390    -2.9410     1.6150 hc         1 90T       0.046367
     52 H20          6.5850    -2.8960     2.7460 hc         1 90T       0.046367
     53 H21          5.5010    -1.5140     2.6040 hc         1 90T       0.046367
@<TRIPOS>BOND
     1     1     2 1   
     2     2     3 1   
     3     2     4 1   
     4     4     5 1   
     5     4     6 1   
     6     4    34 1   
     7     5     8 1   
     8     5    35 1   
     9     5    36 1   
    10     6     7 1   
    11     6    37 1   
    12     6    38 1   
    13     7     8 1   
    14     7    39 1   
    15     7    40 1   
    16     8     9 1   
    17     9    10 2   
    18     9    11 1   
    19    11    12 ar  
    20    11    13 ar  
    21    12    16 ar  
    22    12    41 1   
    23    13    14 ar  
    24    13    42 1   
    25    14    15 ar  
    26    14    43 1   
    27    15    16 ar  
    28    15    44 1   
    29    16    17 1   
    30    17    18 1   
    31    17    45 1   
    32    18    19 1   
    33    18    20 2   
    34    19    22 1   
    35    20    21 1   
    36    21    22 2   
    37    21    46 1   
    38    22    23 1   
    39    23    24 2   
    40    23    25 1   
    41    25    26 1   
    42    25    47 1   
    43    26    27 ar  
    44    26    32 ar  
    45    27    28 1   
    46    27    29 ar  
    47    29    30 ar  
    48    29    48 1   
    49    30    31 ar  
    50    30    49 1   
    51    31    32 ar  
    52    31    50 1   
    53    32    33 1   
    54    33    51 1   
    55    33    52 1   
    56    33    53 1   
@<TRIPOS>SUBSTRUCTURE
     1 90T         1 TEMP              0 ****  ****    0 ROOT
