@<TRIPOS>MOLECULE
90T
   53    56     1     0     0
SMALL
No Charge or Current Charge


@<TRIPOS>ATOM
      1 OAV         -7.2240    -3.4140    -1.8620 o          1 90T      -0.727000
      2 CAU         -7.8780    -2.9400    -0.9450 c          1 90T       0.727000
      3 OAW         -8.9990    -3.3430    -0.6760 o          1 90T      -0.727000
      4 CAT         -7.2830    -1.7980    -0.0840 c5         1 90T      -0.208700
      5 CAX         -6.9040    -0.5820    -0.9740 c5         1 90T       0.112000
      6 CAS         -5.9180    -2.1810     0.5470 c5         1 90T      -0.066400
      7 CAR         -5.4000    -0.7830     0.9590 c5         1 90T       0.091000
      8 NAQ         -5.7690     0.0220    -0.2300 n          1 90T      -0.396800
      9 CAP         -5.4610     1.3950    -0.3540 c          1 90T       0.598700
     10 OAY         -6.1800     2.1390    -1.0120 o          1 90T      -0.618100
     11 CAO         -4.1730     1.9140     0.2530 ca         1 90T      -0.092600
     12 CAZ         -2.9800     1.1550     0.2340 ca         1 90T      -0.135000
     13 CAN         -4.1380     3.2180     0.7920 ca         1 90T      -0.094000
     14 CAM         -2.9530     3.7290     1.3460 ca         1 90T      -0.098000
     15 CAL         -1.7840     2.9500     1.3450 ca         1 90T      -0.125000
     16 CAK         -1.7870     1.6660     0.7730 ca         1 90T       0.278000
     17 NAJ         -0.6420     0.8690     0.7530 nu         1 90T      -0.911900
     18 CAI          0.6780     1.1330     0.5410 cc         1 90T       0.754300
     19 SBA          1.8940    -0.1160     0.5240 ss         1 90T      -0.116400
     20 NAH          1.0760     2.3610     0.2930 nd         1 90T      -0.737000
     21 CAG          2.4500     2.3750     0.0840 cd         1 90T       0.404900
     22 CAF          3.0500     1.1430     0.1720 cc         1 90T      -0.350600
     23 CAE          4.4940     0.9580    -0.0160 c          1 90T       0.665700
     24 OBB          5.2640     1.8820    -0.2490 o          1 90T      -0.580100
     25 NAD          4.8960    -0.3580     0.1230 ns         1 90T      -0.169000
     26 CAC          6.1820    -0.9380    -0.0360 ca         1 90T      -0.035000
     27 CAB          6.9160    -0.7970    -1.2410 ca         1 90T       0.133000
     28 Cl1          6.2480     0.0380    -2.6460 cl         1 90T      -0.181000
     29 CBG          8.1850    -1.3850    -1.3660 ca         1 90T      -0.103000
     30 CBF          8.7310    -2.1220    -0.3040 ca         1 90T      -0.104000
     31 CBE          8.0000    -2.2840     0.8830 ca         1 90T      -0.105000
     32 CBC          6.7250    -1.7030     1.0240 ca         1 90T      -0.075300
     33 CBD          5.9530    -1.8950     2.3270 c3         1 90T      -0.048800
     34 H2          -8.0030    -1.5040     0.6900 hc         1 90T       0.036700
     35 H3          -6.5710    -0.8870    -1.9750 h1         1 90T       0.061200
     36 H4          -7.7510     0.1080    -1.0930 h1         1 90T       0.061200
     37 H5          -6.0170    -2.8620     1.4000 hc         1 90T       0.052200
     38 H6          -5.2420    -2.6510    -0.1770 hc         1 90T       0.052200
     39 H7          -5.9160    -0.4080     1.8530 h1         1 90T       0.025700
     40 H8          -4.3250    -0.8070     1.1660 h1         1 90T       0.025700
     41 H9          -2.9710     0.1750    -0.2330 ha         1 90T       0.120000
     42 H10         -5.0380     3.8310     0.7950 ha         1 90T       0.129000
     43 H11         -2.9410     4.7280     1.7770 ha         1 90T       0.111000
     44 H12         -0.8770     3.3490     1.7880 ha         1 90T       0.146000
     45 H13         -0.8190    -0.1280     0.6830 hn         1 90T       0.509000
     46 H14          2.9500     3.3130    -0.1280 h4         1 90T       0.056100
     47 H15          4.1630    -1.0030     0.3830 hn         1 90T       0.161000
     48 H16          8.7420    -1.2780    -2.2940 ha         1 90T       0.129000
     49 H17          9.7140    -2.5770    -0.4050 ha         1 90T       0.115000
     50 H18          8.4300    -2.8660     1.6960 ha         1 90T       0.115000
     51 H19          5.0010    -2.4090     2.1500 hc         1 90T       0.046367
     52 H20          6.5180    -2.4920     3.0520 hc         1 90T       0.046367
     53 H21          5.7320    -0.9300     2.8000 hc         1 90T       0.046367
@<TRIPOS>BOND
     1     1     2 1   
     2     2     3 1   
     3     2     4 1   
     4     4     5 1   
     5     4     6 1   
     6     4    34 1   
     7     5     8 1   
     8     5    35 1   
     9     5    36 1   
    10     6     7 1   
    11     6    37 1   
    12     6    38 1   
    13     7     8 1   
    14     7    39 1   
    15     7    40 1   
    16     8     9 1   
    17     9    10 2   
    18     9    11 1   
    19    11    12 ar  
    20    11    13 ar  
    21    12    16 ar  
    22    12    41 1   
    23    13    14 ar  
    24    13    42 1   
    25    14    15 ar  
    26    14    43 1   
    27    15    16 ar  
    28    15    44 1   
    29    16    17 1   
    30    17    18 1   
    31    17    45 1   
    32    18    19 1   
    33    18    20 2   
    34    19    22 1   
    35    20    21 1   
    36    21    22 2   
    37    21    46 1   
    38    22    23 1   
    39    23    24 2   
    40    23    25 1   
    41    25    26 1   
    42    25    47 1   
    43    26    27 ar  
    44    26    32 ar  
    45    27    28 1   
    46    27    29 ar  
    47    29    30 ar  
    48    29    48 1   
    49    30    31 ar  
    50    30    49 1   
    51    31    32 ar  
    52    31    50 1   
    53    32    33 1   
    54    33    51 1   
    55    33    52 1   
    56    33    53 1   
@<TRIPOS>SUBSTRUCTURE
     1 90T         1 TEMP              0 ****  ****    0 ROOT
