@<TRIPOS>MOLECULE
90U
   66    69     1     0     0
SMALL
No Charge or Current Charge


@<TRIPOS>ATOM
      1 N1         -19.6590    16.3430   -25.5980 n          1 90U      -0.392800
      2 N3         -18.5300    21.6350   -31.0460 nt         1 90U      -0.591000
      3 C4         -20.3460    14.5920   -27.0460 cx         1 90U      -0.125700
      4 C5         -18.9800    13.9430   -27.2370 cx         1 90U      -0.072000
      5 C6         -18.0340    13.6280   -26.0650 c3         1 90U      -0.067100
      6 C7         -18.8580    12.8410   -28.2890 c3         1 90U      -0.067100
      7 C8         -20.6400    15.2380   -25.6830 c5         1 90U       0.144000
      8 C10        -20.4340    17.6620   -22.3000 c3         1 90U       0.228900
      9 C13        -22.4910    20.5910   -23.7090 ca         1 90U      -0.112500
     10 C15        -20.5630    21.4970   -22.5360 ca         1 90U      -0.112500
     11 C17        -17.7380    19.6020   -28.8340 c3         1 90U       0.074700
     12 C20        -16.6090    20.3610   -28.0850 c3         1 90U      -0.076400
     13 C21        -16.8050    20.5020   -26.5460 c5         1 90U      -0.156700
     14 C22        -18.0650    21.2970   -26.1010 c5         1 90U      -0.087400
     15 C24        -15.6700    21.2580   -25.8420 c          1 90U       0.563000
     16 C1         -19.0590    17.9170   -27.4890 c          1 90U       0.588100
     17 C2         -18.8160    16.5310   -26.8110 c5         1 90U       0.069700
     18 C3         -19.2410    15.3620   -27.7260 cx         1 90U      -0.139700
     19 C9         -19.4910    17.1420   -24.4580 c          1 90U       0.648100
     20 O2         -20.4170    16.8540   -23.4920 os         1 90U      -0.447100
     21 C11        -20.8960    19.0790   -22.6410 ca         1 90U      -0.119300
     22 C12        -22.0750    19.2870   -23.3870 ca         1 90U      -0.089500
     23 C14        -21.7350    21.6960   -23.2850 ca         1 90U      -0.106000
     24 C16        -20.1450    20.1940   -22.2150 ca         1 90U      -0.089500
     25 O3         -18.6100    17.9840   -24.3570 o          1 90U      -0.540000
     26 N2         -17.9440    18.2750   -28.2260 ns         1 90U      -0.512900
     27 C18        -17.4850    19.4860   -30.3670 c3         1 90U       0.071300
     28 O4         -18.5060    18.6420   -30.9610 oh         1 90U      -0.659000
     29 C19        -17.4060    20.8800   -31.0670 c          1 90U       0.613100
     30 O5         -16.4020    21.2990   -31.6230 o          1 90U      -0.600100
     31 C23        -17.6850    21.6750   -24.6440 c5         1 90U       0.100000
     32 N4         -16.2540    21.9250   -24.8000 ns         1 90U      -0.513900
     33 O6         -14.5260    21.4670   -26.2120 o          1 90U      -0.559000
     34 H1         -18.5300    22.5350   -31.5020 hn         1 90U       0.322000
     35 H2         -19.3750    21.2640   -30.6400 hn         1 90U       0.322000
     36 H3         -21.1740    14.2200   -27.6460 hc         1 90U       0.101700
     37 H4         -18.0530    14.3690   -25.2600 hc         1 90U       0.042867
     38 H5         -18.2890    12.6620   -25.6130 hc         1 90U       0.042867
     39 H6         -16.9960    13.5650   -26.4130 hc         1 90U       0.042867
     40 H7         -19.1280    11.8650   -27.8700 hc         1 90U       0.042867
     41 H8         -19.5190    13.0250   -29.1460 hc         1 90U       0.042867
     42 H9         -17.8330    12.7740   -28.6730 hc         1 90U       0.042867
     43 H10        -21.6630    15.6350   -25.6330 h1         1 90U       0.062700
     44 H11        -20.5200    14.5310   -24.8510 h1         1 90U       0.062700
     45 H12        -21.1300    17.2340   -21.5680 h1         1 90U       0.067200
     46 H13        -19.4410    17.6850   -21.8310 h1         1 90U       0.067200
     47 H15        -19.9780    22.3520   -22.2050 ha         1 90U       0.113500
     48 H16        -18.6590    20.1870   -28.7010 h1         1 90U       0.091700
     49 H17        -15.6590    19.8460   -28.2780 hc         1 90U       0.072200
     50 H18        -16.5010    21.3630   -28.5200 hc         1 90U       0.072200
     51 H19        -16.8490    19.5100   -26.0840 hc         1 90U       0.084700
     52 H20        -18.2070    22.1970   -26.7110 hc         1 90U       0.063700
     53 H21        -18.9910    20.7150   -26.1490 hc         1 90U       0.063700
     54 H22        -17.7520    16.4730   -26.5430 h1         1 90U       0.086700
     55 H23        -19.2980    15.5200   -28.8010 hc         1 90U       0.097700
     56 H24        -22.6660    18.4370   -23.7220 ha         1 90U       0.117000
     57 H25        -22.0570    22.7050   -23.5340 ha         1 90U       0.113000
     58 H26        -19.2320    20.0510   -21.6400 ha         1 90U       0.117000
     59 H27        -17.1620    17.6290   -28.2110 hn         1 90U       0.316500
     60 H28        -16.5020    19.0160   -30.5080 h1         1 90U       0.063700
     61 H29        -18.6720    17.9140   -30.3210 ho         1 90U       0.457000
     62 H30        -18.2380    22.5540   -24.2880 h1         1 90U       0.047700
     63 H31        -17.8710    20.8420   -23.9520 h1         1 90U       0.047700
     64 H32        -15.6930    22.5620   -24.2460 hn         1 90U       0.324500
     65 O1         -20.0740    18.6010   -27.4370 o          1 90U      -0.587100
     66 H14        -23.3990    20.7430   -24.2880 ha         1 90U       0.113500
@<TRIPOS>BOND
     1     1     7 1   
     2     1    17 1   
     3     1    19 1   
     4     2    29 1   
     5     2    34 1   
     6     2    35 1   
     7     3     4 1   
     8     3     7 1   
     9     3    18 1   
    10     3    36 1   
    11     4     5 1   
    12     4     6 1   
    13     4    18 1   
    14     5    37 1   
    15     5    38 1   
    16     5    39 1   
    17     6    40 1   
    18     6    41 1   
    19     6    42 1   
    20     7    43 1   
    21     7    44 1   
    22     8    20 1   
    23     8    21 1   
    24     8    45 1   
    25     8    46 1   
    26     9    22 ar  
    27     9    23 ar  
    28     9    66 1   
    29    10    23 ar  
    30    10    24 ar  
    31    10    47 1   
    32    11    12 1   
    33    11    26 1   
    34    11    27 1   
    35    11    48 1   
    36    12    13 1   
    37    12    49 1   
    38    12    50 1   
    39    13    14 1   
    40    13    15 1   
    41    13    51 1   
    42    14    31 1   
    43    14    52 1   
    44    14    53 1   
    45    15    32 1   
    46    15    33 2   
    47    16    17 1   
    48    16    26 1   
    49    16    65 2   
    50    17    18 1   
    51    17    54 1   
    52    18    55 1   
    53    19    20 1   
    54    19    25 2   
    55    21    22 ar  
    56    21    24 ar  
    57    22    56 1   
    58    23    57 1   
    59    24    58 1   
    60    26    59 1   
    61    27    28 1   
    62    27    29 1   
    63    27    60 1   
    64    28    61 1   
    65    29    30 2   
    66    31    32 1   
    67    31    62 1   
    68    31    63 1   
    69    32    64 1   
@<TRIPOS>SUBSTRUCTURE
     1 90U         1 TEMP              0 ****  ****    0 ROOT
