@<TRIPOS>MOLECULE
90U
   66    69     1     0     0
SMALL
abcg2


@<TRIPOS>ATOM
      1 N1         -19.4340    16.2000   -25.5340 n          1 90U      -0.392800
      2 N3         -19.0540    21.2170   -31.0370 nt         1 90U      -0.591000
      3 C4         -20.3050    14.6910   -27.0930 cx         1 90U      -0.125700
      4 C5         -19.0410    13.8990   -27.2780 cx         1 90U      -0.072000
      5 C6         -18.2120    13.4160   -26.1120 c3         1 90U      -0.067100
      6 C7         -19.0600    12.9160   -28.4270 c3         1 90U      -0.067100
      7 C8         -20.5860    15.3330   -25.7590 c5         1 90U       0.144000
      8 C10        -20.3020    17.7790   -22.5000 c3         1 90U       0.228900
      9 C13        -22.0070    20.6200   -24.3640 ca         1 90U      -0.112500
     10 C15        -20.6400    21.5470   -22.6230 ca         1 90U      -0.112500
     11 C17        -17.8230    19.6430   -28.5470 c3         1 90U       0.074700
     12 C20        -16.7320    20.5160   -27.9300 c3         1 90U      -0.076400
     13 C21        -16.8140    20.5930   -26.4140 c5         1 90U      -0.156700
     14 C22        -18.0690    21.2450   -25.8350 c5         1 90U      -0.087400
     15 C24        -15.6860    21.4160   -25.8070 c          1 90U       0.563000
     16 C1         -18.8740    17.7850   -27.3060 c          1 90U       0.588100
     17 C2         -18.6110    16.4020   -26.7060 c5         1 90U       0.069700
     18 C3         -19.0880    15.3460   -27.6830 cx         1 90U      -0.139700
     19 C9         -19.2850    17.0270   -24.4830 c          1 90U       0.648100
     20 O2         -20.2470    16.8440   -23.5710 os         1 90U      -0.447100
     21 C11        -20.7170    19.1550   -22.9460 ca         1 90U      -0.119300
     22 C12        -21.6130    19.3410   -23.9950 ca         1 90U      -0.089500
     23 C14        -21.5250    21.7280   -23.6780 ca         1 90U      -0.106000
     24 C16        -20.2340    20.2690   -22.2670 ca         1 90U      -0.089500
     25 O3         -18.3860    17.8360   -24.3700 o          1 90U      -0.540000
     26 N2         -17.8220    18.3230   -27.9510 ns         1 90U      -0.512900
     27 C18        -17.6660    19.4880   -30.0770 c3         1 90U       0.071300
     28 O4         -18.6400    18.6280   -30.6040 oh         1 90U      -0.659000
     29 C19        -17.7980    20.8400   -30.7690 c          1 90U       0.613100
     30 O5         -16.8150    21.5240   -31.0080 o          1 90U      -0.600100
     31 C23        -17.5920    21.8030   -24.4940 c5         1 90U       0.100000
     32 N4         -16.1970    22.0830   -24.7590 ns         1 90U      -0.513900
     33 O6         -14.5290    21.4490   -26.1900 o          1 90U      -0.559000
     34 H1         -19.2310    22.0920   -31.5030 hn         1 90U       0.322000
     35 H2         -19.8330    20.5970   -30.8910 hn         1 90U       0.322000
     36 H3         -21.1620    14.4510   -27.7110 hc         1 90U       0.101700
     37 H4         -18.1550    14.1200   -25.2840 hc         1 90U       0.042867
     38 H5         -18.6210    12.4820   -25.7200 hc         1 90U       0.042867
     39 H6         -17.1910    13.2120   -26.4390 hc         1 90U       0.042867
     40 H7         -19.4800    11.9590   -28.1090 hc         1 90U       0.042867
     41 H8         -19.6580    13.2770   -29.2650 hc         1 90U       0.042867
     42 H9         -18.0490    12.7300   -28.7960 hc         1 90U       0.042867
     43 H10        -21.5140    15.9090   -25.8090 h1         1 90U       0.062700
     44 H11        -20.6860    14.6040   -24.9530 h1         1 90U       0.062700
     45 H12        -21.0440    17.3630   -21.8170 h1         1 90U       0.067200
     46 H13        -19.3510    17.8190   -21.9650 h1         1 90U       0.067200
     47 H15        -20.2530    22.4040   -22.0860 ha         1 90U       0.113500
     48 H16        -18.8030    20.0790   -28.3450 h1         1 90U       0.091700
     49 H17        -15.7500    20.1320   -28.2210 hc         1 90U       0.072200
     50 H18        -16.8080    21.5250   -28.3400 hc         1 90U       0.072200
     51 H19        -16.7070    19.5860   -25.9900 hc         1 90U       0.084700
     52 H20        -18.3950    22.0640   -26.4820 hc         1 90U       0.063700
     53 H21        -18.9040    20.5570   -25.7190 hc         1 90U       0.063700
     54 H22        -17.5500    16.2860   -26.4610 h1         1 90U       0.086700
     55 H23        -19.0290    15.5860   -28.7380 hc         1 90U       0.097700
     56 H24        -22.0100    18.4910   -24.5360 ha         1 90U       0.117000
     57 H25        -21.8350    22.7250   -23.9640 ha         1 90U       0.113000
     58 H26        -19.5270    20.1370   -21.4550 ha         1 90U       0.117000
     59 H27        -16.9320    17.8500   -27.8810 hn         1 90U       0.316500
     60 H28        -16.6500    19.1220   -30.2840 h1         1 90U       0.063700
     61 H29        -18.5710    17.7790   -30.1540 ho         1 90U       0.457000
     62 H30        -18.1260    22.7050   -24.1970 h1         1 90U       0.047700
     63 H31        -17.7070    21.0680   -23.6910 h1         1 90U       0.047700
     64 H32        -15.6140    22.6000   -24.1190 hn         1 90U       0.324500
     65 O1         -19.9740    18.3030   -27.2310 o          1 90U      -0.587100
     66 H14        -22.6970    20.7510   -25.1870 ha         1 90U       0.113500
@<TRIPOS>BOND
     1     1     7 1   
     2     1    17 1   
     3     1    19 1   
     4     2    29 1   
     5     2    34 1   
     6     2    35 1   
     7     3     4 1   
     8     3     7 1   
     9     3    18 1   
    10     3    36 1   
    11     4     5 1   
    12     4     6 1   
    13     4    18 1   
    14     5    37 1   
    15     5    38 1   
    16     5    39 1   
    17     6    40 1   
    18     6    41 1   
    19     6    42 1   
    20     7    43 1   
    21     7    44 1   
    22     8    20 1   
    23     8    21 1   
    24     8    45 1   
    25     8    46 1   
    26     9    22 ar  
    27     9    23 ar  
    28     9    66 1   
    29    10    23 ar  
    30    10    24 ar  
    31    10    47 1   
    32    11    12 1   
    33    11    26 1   
    34    11    27 1   
    35    11    48 1   
    36    12    13 1   
    37    12    49 1   
    38    12    50 1   
    39    13    14 1   
    40    13    15 1   
    41    13    51 1   
    42    14    31 1   
    43    14    52 1   
    44    14    53 1   
    45    15    32 1   
    46    15    33 2   
    47    16    17 1   
    48    16    26 1   
    49    16    65 2   
    50    17    18 1   
    51    17    54 1   
    52    18    55 1   
    53    19    20 1   
    54    19    25 2   
    55    21    22 ar  
    56    21    24 ar  
    57    22    56 1   
    58    23    57 1   
    59    24    58 1   
    60    26    59 1   
    61    27    28 1   
    62    27    29 1   
    63    27    60 1   
    64    28    61 1   
    65    29    30 2   
    66    31    32 1   
    67    31    62 1   
    68    31    63 1   
    69    32    64 1   
@<TRIPOS>SUBSTRUCTURE
     1 90U         1 TEMP              0 ****  ****    0 ROOT
