@<TRIPOS>MOLECULE
90V
   43    45     1     0     0
SMALL
abcg2


@<TRIPOS>ATOM
      1 C4         -15.8930    66.3340    15.0560 cc         1 90V       0.245300
      2 C14        -12.4420    63.3880    11.1310 c5         1 90V      -0.113400
      3 C5         -15.1740    65.7370    14.0030 cc         1 90V      -0.189000
      4 C6         -14.0090    66.4870    13.8770 cd         1 90V      -0.210600
      5 C10        -12.8160    66.5120    13.0020 c          1 90V       0.637700
      6 C13        -13.3550    64.2480    12.0040 c5         1 90V       0.105000
      7 C3         -18.2980    66.9950    15.3270 c3         1 90V      -0.084100
      8 C1         -17.1570    65.5910    17.0960 c3         1 90V      -0.084100
      9 C15        -11.7180    64.4150    10.2480 c5         1 90V       0.104700
     10 C17        -11.4560    65.5600    11.2220 c5         1 90V       0.084000
     11 C19        -12.6890    64.1740     7.9970 c          1 90V       0.628100
     12 C2         -17.2330    65.9250    15.6010 c3         1 90V      -0.086000
     13 C21        -13.6250    64.7700     7.0050 cx         1 90V      -0.248700
     14 C22        -13.3430    64.5530     5.5350 cx         1 90V      -0.094900
     15 C23        -14.4760    63.8290     6.1780 cx         1 90V      -0.094900
     16 N12        -12.6020    65.5050    12.1400 n          1 90V      -0.409800
     17 N18        -12.5510    64.8730     9.1440 ns         1 90V      -0.508900
     18 N7         -14.0990    67.4520    14.8240 na         1 90V       0.029800
     19 N9         -15.2190    67.3800    15.5480 nd         1 90V      -0.497800
     20 O11        -12.0400    67.4780    13.0830 o          1 90V      -0.630100
     21 O20        -12.0790    63.1210     7.7900 o          1 90V      -0.615100
     22 H142       -12.9910    62.6530    10.5480 hc         1 90V       0.071200
     23 H141       -11.7080    62.8680    11.7490 hc         1 90V       0.071200
     24 H51        -15.4860    64.8890    13.4230 ha         1 90V       0.141000
     25 H132       -14.3130    64.4310    11.5130 h1         1 90V       0.054700
     26 H131       -13.5410    63.8000    12.9780 h1         1 90V       0.054700
     27 H32        -19.2760    66.6560    15.6750 hc         1 90V       0.038367
     28 H31        -18.0530    67.9230    15.8480 hc         1 90V       0.038367
     29 H33        -18.3700    67.2140    14.2600 hc         1 90V       0.038367
     30 H13        -18.1270    65.2450    17.4580 hc         1 90V       0.038367
     31 H12        -16.4190    64.8090    17.2870 hc         1 90V       0.038367
     32 H11        -16.8730    66.4740    17.6730 hc         1 90V       0.038367
     33 H16        -10.7930    64.0180     9.8370 h1         1 90V       0.093700
     34 H172       -10.5230    65.3960    11.7660 h1         1 90V       0.070700
     35 H171       -11.4000    66.5320    10.7350 h1         1 90V       0.070700
     36 H21        -17.5200    65.0170    15.0640 hc         1 90V       0.046700
     37 H211       -14.0730    65.7140     7.2870 hc         1 90V       0.083700
     38 H222       -12.4550    63.9840     5.2970 hc         1 90V       0.082700
     39 H221       -13.5630    65.3780     4.8710 hc         1 90V       0.082700
     40 H232       -15.4870    64.1500     5.9650 hc         1 90V       0.082700
     41 H231       -14.3520    62.7730     6.3730 hc         1 90V       0.082700
     42 H181       -13.1020    65.7090     9.2660 hn         1 90V       0.319500
     43 H8         -13.4120    68.1720    14.9910 hn         1 90V       0.393000
@<TRIPOS>BOND
     1     1     3 1   
     2     1    12 1   
     3     1    19 2   
     4     2     6 1   
     5     2     9 1   
     6     2    22 1   
     7     2    23 1   
     8     3     4 2   
     9     3    24 1   
    10     4     5 1   
    11     4    18 1   
    12     5    16 1   
    13     5    20 2   
    14     6    16 1   
    15     6    25 1   
    16     6    26 1   
    17     7    12 1   
    18     7    27 1   
    19     7    28 1   
    20     7    29 1   
    21     8    12 1   
    22     8    30 1   
    23     8    31 1   
    24     8    32 1   
    25     9    10 1   
    26     9    17 1   
    27     9    33 1   
    28    10    16 1   
    29    10    34 1   
    30    10    35 1   
    31    11    13 1   
    32    11    17 1   
    33    11    21 2   
    34    12    36 1   
    35    13    14 1   
    36    13    15 1   
    37    13    37 1   
    38    14    15 1   
    39    14    38 1   
    40    14    39 1   
    41    15    40 1   
    42    15    41 1   
    43    17    42 1   
    44    18    19 1   
    45    18    43 1   
@<TRIPOS>SUBSTRUCTURE
     1 90V         1 TEMP              0 ****  ****    0 ROOT
