@<TRIPOS>MOLECULE
90V
   43    45     1     0     0
SMALL
No Charge or Current Charge


@<TRIPOS>ATOM
      1 C4         -15.8570    66.3290    14.7380 cc         1 90V       0.245300
      2 C14        -12.1320    63.3980    11.0860 c5         1 90V      -0.113400
      3 C5         -14.9660    65.8280    13.7770 cc         1 90V      -0.189000
      4 C6         -13.8350    66.6050    13.8190 cd         1 90V      -0.210600
      5 C10        -12.5600    66.5760    13.0280 c          1 90V       0.637700
      6 C13        -13.0830    64.2980    11.9260 c5         1 90V       0.105000
      7 C3         -18.3610    66.7070    14.6260 c3         1 90V      -0.084100
      8 C1         -17.3670    65.1750    16.4170 c3         1 90V      -0.084100
      9 C15        -11.3250    64.4140    10.2350 c5         1 90V       0.104700
     10 C17        -11.0740    65.5610    11.2540 c5         1 90V       0.084000
     11 C19        -12.4370    64.3080     8.0500 c          1 90V       0.628100
     12 C2         -17.2220    65.7230    14.9790 c3         1 90V      -0.086000
     13 C21        -13.4930    64.9250     7.1690 cx         1 90V      -0.248700
     14 C22        -14.5650    64.0300     6.5780 cx         1 90V      -0.094900
     15 C23        -14.9180    64.9980     7.6820 cx         1 90V      -0.094900
     16 N12        -12.2950    65.5370    12.1020 n          1 90V      -0.409800
     17 N18        -12.2780    64.9600     9.2510 ns         1 90V      -0.508900
     18 N7         -14.1290    67.5530    14.8130 na         1 90V       0.029800
     19 N9         -15.3860    67.3730    15.3890 nd         1 90V      -0.497800
     20 O11        -11.7330    67.4670    13.1880 o          1 90V      -0.630100
     21 O20        -11.7870    63.3290     7.7150 o          1 90V      -0.615100
     22 H142       -12.6730    62.6580    10.4870 hc         1 90V       0.071200
     23 H141       -11.4570    62.8390    11.7450 hc         1 90V       0.071200
     24 H51        -15.2050    64.9910    13.1370 ha         1 90V       0.141000
     25 H132       -14.0090    64.5040    11.3740 h1         1 90V       0.054700
     26 H131       -13.3300    63.8210    12.8840 h1         1 90V       0.054700
     27 H32        -19.3400    66.2250    14.7350 hc         1 90V       0.038367
     28 H31        -18.3370    67.5860    15.2820 hc         1 90V       0.038367
     29 H33        -18.2650    67.0510    13.5890 hc         1 90V       0.038367
     30 H13        -18.3340    64.6730    16.5460 hc         1 90V       0.038367
     31 H12        -16.5750    64.4480    16.6320 hc         1 90V       0.038367
     32 H11        -17.3000    65.9840    17.1540 hc         1 90V       0.038367
     33 H16        -10.4030    64.0090     9.7930 h1         1 90V       0.093700
     34 H172       -10.1840    65.3540    11.8640 h1         1 90V       0.070700
     35 H171       -10.9250    66.5300    10.7580 h1         1 90V       0.070700
     36 H21        -17.3340    64.8640    14.3060 hc         1 90V       0.046700
     37 H211       -13.1480    65.7500     6.5520 hc         1 90V       0.083700
     38 H222       -14.5440    62.9700     6.8240 hc         1 90V       0.082700
     39 H221       -14.9190    64.2550     5.5750 hc         1 90V       0.082700
     40 H232       -15.5090    65.8730     7.4190 hc         1 90V       0.082700
     41 H231       -15.1380    64.5820     8.6640 hc         1 90V       0.082700
     42 H181       -12.8690    65.7630     9.4220 hn         1 90V       0.319500
     43 H8         -13.5100    68.3080    15.1120 hn         1 90V       0.393000
@<TRIPOS>BOND
     1     1     3 1   
     2     1    12 1   
     3     1    19 2   
     4     2     6 1   
     5     2     9 1   
     6     2    22 1   
     7     2    23 1   
     8     3     4 2   
     9     3    24 1   
    10     4     5 1   
    11     4    18 1   
    12     5    16 1   
    13     5    20 2   
    14     6    16 1   
    15     6    25 1   
    16     6    26 1   
    17     7    12 1   
    18     7    27 1   
    19     7    28 1   
    20     7    29 1   
    21     8    12 1   
    22     8    30 1   
    23     8    31 1   
    24     8    32 1   
    25     9    10 1   
    26     9    17 1   
    27     9    33 1   
    28    10    16 1   
    29    10    34 1   
    30    10    35 1   
    31    11    13 1   
    32    11    17 1   
    33    11    21 2   
    34    12    36 1   
    35    13    14 1   
    36    13    15 1   
    37    13    37 1   
    38    14    15 1   
    39    14    38 1   
    40    14    39 1   
    41    15    40 1   
    42    15    41 1   
    43    17    42 1   
    44    18    19 1   
    45    18    43 1   
@<TRIPOS>SUBSTRUCTURE
     1 90V         1 TEMP              0 ****  ****    0 ROOT
