@<TRIPOS>MOLECULE
90W
   58    61     1     0     0
SMALL
No Charge or Current Charge


@<TRIPOS>ATOM
      1 CAS          6.7740    -1.8000    -0.3430 c6         1 90W      -0.088400
      2 CAT          7.8590    -2.8380     0.0410 c6         1 90W      -0.090900
      3 CAU          9.2430    -2.1670     0.2200 c6         1 90W       0.169300
      4 OAV         10.2020    -3.1390     0.6410 oh         1 90W      -0.656000
      5 CAW          9.1610    -1.0170     1.2560 c6         1 90W      -0.090900
      6 CAX          8.0710     0.0140     0.8660 c6         1 90W      -0.088400
      7 CAR          6.6830    -0.6600     0.7070 c6         1 90W       0.106700
      8 NAQ          5.6850     0.3360     0.3010 ns         1 90W      -0.500900
      9 CAP          4.3240     0.2370     0.4980 c          1 90W       0.609700
     10 OAY          3.8360    -0.7270     1.0710 o          1 90W      -0.589100
     11 CAO          3.4770     1.3800    -0.0270 ca         1 90W      -0.121600
     12 CAZ          2.0720     1.3310     0.1370 ca         1 90W      -0.080000
     13 CAN          4.0400     2.5070    -0.6750 ca         1 90W      -0.115000
     14 CAM          3.2170     3.5480    -1.1350 ca         1 90W      -0.089000
     15 CAL          1.8260     3.4790    -0.9610 ca         1 90W      -0.150000
     16 CAK          1.2440     2.3670    -0.3350 ca         1 90W       0.294000
     17 NAJ         -0.1420     2.3430    -0.1660 nu         1 90W      -0.920900
     18 CAI         -1.0750     1.3540    -0.2430 cc         1 90W       0.737300
     19 SBA         -2.7810     1.6540    -0.0510 ss         1 90W      -0.112400
     20 NAH         -0.7090     0.1210    -0.5130 nd         1 90W      -0.719000
     21 CAG         -1.8300    -0.6990    -0.5660 cd         1 90W       0.401900
     22 CAF         -3.0180    -0.0500    -0.3420 cc         1 90W      -0.332600
     23 CAE         -4.3100    -0.7480    -0.3560 c          1 90W       0.662700
     24 OBB         -4.4190    -1.9520    -0.5530 o          1 90W      -0.569100
     25 NAD         -5.3830     0.0850    -0.0990 ns         1 90W      -0.167000
     26 CAC         -6.7740    -0.2010    -0.0800 ca         1 90W      -0.041000
     27 CAB         -7.4300    -0.7690    -1.2010 ca         1 90W       0.133000
     28 ClA         -6.5800    -1.0820    -2.7160 cl         1 90W      -0.183000
     29 CBG         -8.8070    -1.0380    -1.1510 ca         1 90W      -0.101000
     30 CBF         -9.5440    -0.7400     0.0050 ca         1 90W      -0.099000
     31 CBE         -8.9060    -0.1560     1.1110 ca         1 90W      -0.104000
     32 CBC         -7.5250     0.1230     1.0750 ca         1 90W      -0.073300
     33 CBD         -6.8560     0.7560     2.2930 c3         1 90W      -0.048800
     34 H1           6.9990    -1.3790    -1.3330 hc         1 90W       0.046950
     35 H2           5.8010    -2.3030    -0.4330 hc         1 90W       0.046950
     36 H3           7.5670    -3.3480     0.9700 hc         1 90W       0.053950
     37 H4           7.9190    -3.6130    -0.7360 hc         1 90W       0.053950
     38 H5           9.5480    -1.7410    -0.7480 h1         1 90W       0.024700
     39 H6          11.0730    -2.6850     0.6580 ho         1 90W       0.441000
     40 H7           8.9400    -1.4260     2.2520 hc         1 90W       0.053950
     41 H8          10.1330    -0.5120     1.3340 hc         1 90W       0.053950
     42 H9           8.0170     0.7990     1.6330 hc         1 90W       0.046950
     43 H10          8.3560     0.5130    -0.0710 hc         1 90W       0.046950
     44 H11          6.3830    -1.0860     1.6770 h1         1 90W       0.084700
     45 H12          6.0100     1.1650    -0.1780 hn         1 90W       0.309500
     46 H13          1.6180     0.4850     0.6440 ha         1 90W       0.177000
     47 H14          5.1120     2.5960    -0.8270 ha         1 90W       0.116000
     48 H15          3.6600     4.4120    -1.6270 ha         1 90W       0.117000
     49 H16          1.2010     4.2920    -1.3220 ha         1 90W       0.112000
     50 H17         -0.5860     3.2560    -0.1950 hn         1 90W       0.506000
     51 H18         -1.7110    -1.7560    -0.7730 h4         1 90W       0.065100
     52 H19         -5.1390     1.0430     0.1150 hn         1 90W       0.158000
     53 H20         -9.3060    -1.4690    -2.0150 ha         1 90W       0.132000
     54 H21        -10.6110    -0.9490     0.0400 ha         1 90W       0.119000
     55 H22         -9.4890     0.0800     1.9980 ha         1 90W       0.117000
     56 H23         -6.4130     1.7270     2.0390 hc         1 90W       0.046033
     57 H24         -7.5690     0.9250     3.1090 hc         1 90W       0.046033
     58 H25         -6.0590     0.1130     2.6840 hc         1 90W       0.046033
@<TRIPOS>BOND
     1     1     2 1   
     2     1     7 1   
     3     1    34 1   
     4     1    35 1   
     5     2     3 1   
     6     2    36 1   
     7     2    37 1   
     8     3     4 1   
     9     3     5 1   
    10     3    38 1   
    11     4    39 1   
    12     5     6 1   
    13     5    40 1   
    14     5    41 1   
    15     6     7 1   
    16     6    42 1   
    17     6    43 1   
    18     7     8 1   
    19     7    44 1   
    20     8     9 1   
    21     8    45 1   
    22     9    10 2   
    23     9    11 1   
    24    11    12 ar  
    25    11    13 ar  
    26    12    16 ar  
    27    12    46 1   
    28    13    14 ar  
    29    13    47 1   
    30    14    15 ar  
    31    14    48 1   
    32    15    16 ar  
    33    15    49 1   
    34    16    17 1   
    35    17    18 1   
    36    17    50 1   
    37    18    19 1   
    38    18    20 2   
    39    19    22 1   
    40    20    21 1   
    41    21    22 2   
    42    21    51 1   
    43    22    23 1   
    44    23    24 2   
    45    23    25 1   
    46    25    26 1   
    47    25    52 1   
    48    26    27 ar  
    49    26    32 ar  
    50    27    28 1   
    51    27    29 ar  
    52    29    30 ar  
    53    29    53 1   
    54    30    31 ar  
    55    30    54 1   
    56    31    32 ar  
    57    31    55 1   
    58    32    33 1   
    59    33    56 1   
    60    33    57 1   
    61    33    58 1   
@<TRIPOS>SUBSTRUCTURE
     1 90W         1 TEMP              0 ****  ****    0 ROOT
