@<TRIPOS>MOLECULE
90W
   58    61     1     0     0
SMALL
bcc


@<TRIPOS>ATOM
      1 CAS          6.4220    -1.7460    -0.5520 c6         1 90W      -0.088400
      2 CAT          7.3740    -2.9000    -0.2590 c6         1 90W      -0.090900
      3 CAU          8.7980    -2.3980    -0.0780 c6         1 90W       0.146100
      4 OAV          9.6230    -3.5110     0.2040 oh         1 90W      -0.593800
      5 CAW          8.8550    -1.3460     1.0230 c6         1 90W      -0.090900
      6 CAX          7.9100    -0.1840     0.7350 c6         1 90W      -0.088400
      7 CAR          6.4820    -0.6830     0.5450 c6         1 90W       0.106700
      8 NAQ          5.5990     0.4310     0.2590 ns         1 90W      -0.567900
      9 CAP          4.3080     0.4650     0.6260 c          1 90W       0.676700
     10 OAY          3.7720    -0.4260     1.2710 o          1 90W      -0.589100
     11 CAO          3.5340     1.6760     0.1970 ca         1 90W      -0.121600
     12 CAZ          2.1530     1.5370     0.0940 ca         1 90W      -0.098000
     13 CAN          4.1410     2.8990    -0.0680 ca         1 90W      -0.133000
     14 CAM          3.3570     3.9760    -0.4580 ca         1 90W      -0.107000
     15 CAL          1.9880     3.8410    -0.5850 ca         1 90W      -0.168000
     16 CAK          1.3720     2.6170    -0.3070 ca         1 90W       0.155600
     17 NAJ         -0.0140     2.5670    -0.4630 nu         1 90W      -0.727300
     18 CAI         -0.8630     1.5490    -0.2180 cc         1 90W       0.737300
     19 SBA         -2.5580     1.7600    -0.5700 ss         1 90W      -0.257300
     20 NAH         -0.5520     0.3790     0.2630 nd         1 90W      -0.719000
     21 CAG         -1.6510    -0.4020     0.3830 cd         1 90W       0.467200
     22 CAF         -2.8390     0.1410     0.0000 cc         1 90W      -0.253000
     23 CAE         -4.1360    -0.5400     0.0660 c          1 90W       0.729700
     24 OBB         -4.2120    -1.7190     0.3680 o          1 90W      -0.569100
     25 NAD         -5.2300     0.2110    -0.2250 ns         1 90W      -0.493100
     26 CAC         -6.5330    -0.3210    -0.1860 ca         1 90W       0.051600
     27 CAB         -6.9640    -1.2140    -1.1640 ca         1 90W       0.041400
     28 CLA         -5.8960    -1.6550    -2.4490 cl         1 90W      -0.091400
     29 CBG         -8.2440    -1.7440    -1.1410 ca         1 90W      -0.119000
     30 CBF         -9.1090    -1.3600    -0.1290 ca         1 90W      -0.117000
     31 CBE         -8.6960    -0.4610     0.8430 ca         1 90W      -0.122000
     32 CBC         -7.4080     0.0630     0.8350 ca         1 90W      -0.073300
     33 CBD         -6.9590     1.0250     1.8930 c3         1 90W      -0.048800
     34 H1           6.6860    -1.2840    -1.5090 hc         1 90W       0.046950
     35 H2           5.4010    -2.1190    -0.6510 hc         1 90W       0.046950
     36 H3           7.0570    -3.4170     0.6540 hc         1 90W       0.053950
     37 H4           7.3330    -3.6310    -1.0700 hc         1 90W       0.053950
     38 H5           9.1100    -1.9210    -1.0210 h1         1 90W       0.024700
     39 H6          10.5300    -3.2000     0.2810 ho         1 90W       0.402000
     40 H7           8.5840    -1.8120     1.9770 hc         1 90W       0.053950
     41 H8           9.8770    -0.9690     1.1320 hc         1 90W       0.053950
     42 H9           7.9470     0.5420     1.5500 hc         1 90W       0.046950
     43 H10          8.2360     0.3400    -0.1710 hc         1 90W       0.046950
     44 H11          6.1470    -1.1300     1.4850 h1         1 90W       0.084700
     45 H12          5.9350     1.1150    -0.4010 hn         1 90W       0.309500
     46 H13          1.6950     0.5880     0.3230 ha         1 90W       0.195000
     47 H14          5.2080     3.0370     0.0500 ha         1 90W       0.134000
     48 H15          3.8160     4.9340    -0.6620 ha         1 90W       0.135000
     49 H16          1.3910     4.6900    -0.8950 ha         1 90W       0.130000
     50 H17         -0.4290     3.4210    -0.8030 hn         1 90W       0.450800
     51 H18         -1.5480    -1.4030     0.7760 h4         1 90W       0.065100
     52 H19         -5.1460     1.2110    -0.3300 hn         1 90W       0.324500
     53 H20         -8.5610    -2.4380    -1.9070 ha         1 90W       0.150000
     54 H21        -10.1120    -1.7650    -0.1030 ha         1 90W       0.137000
     55 H22         -9.3810    -0.1680     1.6280 ha         1 90W       0.135000
     56 H23         -6.7620     2.0160     1.4810 hc         1 90W       0.046033
     57 H24         -7.7220     1.1360     2.6620 hc         1 90W       0.046033
     58 H25         -6.0400     0.6900     2.3760 hc         1 90W       0.046033
@<TRIPOS>BOND
     1     1     2 1   
     2     1     7 1   
     3     1    34 1   
     4     1    35 1   
     5     2     3 1   
     6     2    36 1   
     7     2    37 1   
     8     3     4 1   
     9     3     5 1   
    10     3    38 1   
    11     4    39 1   
    12     5     6 1   
    13     5    40 1   
    14     5    41 1   
    15     6     7 1   
    16     6    42 1   
    17     6    43 1   
    18     7     8 1   
    19     7    44 1   
    20     8     9 1   
    21     8    45 1   
    22     9    10 2   
    23     9    11 1   
    24    11    12 ar  
    25    11    13 ar  
    26    12    16 ar  
    27    12    46 1   
    28    13    14 ar  
    29    13    47 1   
    30    14    15 ar  
    31    14    48 1   
    32    15    16 ar  
    33    15    49 1   
    34    16    17 1   
    35    17    18 1   
    36    17    50 1   
    37    18    19 1   
    38    18    20 2   
    39    19    22 1   
    40    20    21 1   
    41    21    22 2   
    42    21    51 1   
    43    22    23 1   
    44    23    24 2   
    45    23    25 1   
    46    25    26 1   
    47    25    52 1   
    48    26    27 ar  
    49    26    32 ar  
    50    27    28 1   
    51    27    29 ar  
    52    29    30 ar  
    53    29    53 1   
    54    30    31 ar  
    55    30    54 1   
    56    31    32 ar  
    57    31    55 1   
    58    32    33 1   
    59    33    56 1   
    60    33    57 1   
    61    33    58 1   
@<TRIPOS>SUBSTRUCTURE
     1 90W         1 TEMP              0 ****  ****    0 ROOT
