@<TRIPOS>MOLECULE
90X
   75    78     1     0     0
SMALL
abcg2


@<TRIPOS>ATOM
      1 N1          21.0240     4.0950   -27.7210 ns         1 90X      -0.487900
      2 C2          17.9090     8.6900   -29.9140 ca         1 90X       0.156100
      3 C3          19.1120     8.9610   -29.2700 ca         1 90X      -0.173000
      4 C4          19.1520     9.7920   -28.1610 ca         1 90X      -0.064000
      5 C5          17.9860    10.3620   -27.6870 ca         1 90X       0.081000
      6 C8          21.2470     5.7130   -32.1420 c5         1 90X       0.105000
      7 C9          22.0270     4.4150   -32.2850 c5         1 90X      -0.092400
      8 C10         22.2760     4.0060   -30.8370 c5         1 90X      -0.085400
      9 C11         20.9830     4.4140   -30.1130 c5         1 90X       0.027700
     10 C12         21.2890     4.9510   -28.7180 c          1 90X       0.611100
     11 C15         18.9180     5.1650   -26.0210 c5         1 90X      -0.156700
     12 C7          16.7470     9.2890   -29.4190 ca         1 90X       0.088000
     13 C16         19.2380     6.6600   -26.0250 c5         1 90X      -0.089400
     14 N           20.4370     5.4630   -30.9560 n          1 90X      -0.402800
     15 C           19.3120     6.0970   -30.6070 c          1 90X       0.577100
     16 O           18.6560     5.7940   -29.6220 o          1 90X      -0.585100
     17 C1          18.8820     7.2410   -31.5180 c3         1 90X       0.082600
     18 C13         21.2980     4.3440   -26.3250 c3         1 90X       0.119700
     19 C14         20.0140     4.2500   -25.4990 c3         1 90X      -0.073400
     20 C17         17.8640     7.3170   -25.9060 c5         1 90X       0.096000
     21 C18         17.6400     5.0910   -25.1970 c          1 90X       0.564000
     22 C19         22.3900     3.3650   -25.8550 c3         1 90X       0.067300
     23 C6          16.7740    10.1190   -28.3130 ca         1 90X      -0.068000
     24 N2          17.1220     6.3310   -25.1500 ns         1 90X      -0.512900
     25 O1          17.7650     7.9150   -31.0000 os         1 90X      -0.300100
     26 O2          17.1610     4.0920   -24.6880 o          1 90X      -0.560000
     27 O4          23.5190     3.5930   -26.6580 oh         1 90X      -0.652000
     28 O5          21.7800     6.0590   -28.5690 o          1 90X      -0.604100
     29 CL          18.0280    11.3720   -26.2800 cl         1 90X      -0.198000
     30 CL1         15.2430     8.9820   -30.2090 cl         1 90X      -0.174000
     31 C20         22.6940     3.5410   -24.3650 c          1 90X       0.560100
     32 C21         24.1270     4.6920   -22.7480 c3         1 90X       0.107000
     33 C22         25.0510     3.5930   -22.2120 c3         1 90X      -0.062100
     34 C23         26.2520     3.3740   -23.0870 ca         1 90X      -0.077300
     35 C24         27.3900     4.1660   -22.9460 ca         1 90X      -0.112000
     36 C25         28.4890     3.9910   -23.7750 ca         1 90X      -0.109500
     37 C26         28.4660     3.0180   -24.7670 ca         1 90X      -0.110000
     38 C27         27.3370     2.2240   -24.9200 ca         1 90X      -0.109500
     39 C28         26.2400     2.4030   -24.0870 ca         1 90X      -0.112000
     40 N3          23.6470     4.4390   -24.0870 ns         1 90X      -0.490900
     41 H93         20.5950     3.2110   -27.9540 hn         1 90X       0.314500
     42 H31         20.0420     8.5260   -29.6100 ha         1 90X       0.135000
     43 H41         20.0980     9.9780   -27.6700 ha         1 90X       0.135000
     44 H81         21.9170     6.5640   -31.9850 h1         1 90X       0.051700
     45 H82         20.6280     5.9220   -33.0150 h1         1 90X       0.051700
     46 H92         21.4180     3.6680   -32.7970 hc         1 90X       0.059200
     47 H91         22.9480     4.5470   -32.8510 hc         1 90X       0.059200
     48 H13         22.4840     2.9450   -30.7170 hc         1 90X       0.066700
     49 H10         23.1260     4.5630   -30.4380 hc         1 90X       0.066700
     50 H14         20.2880     3.5700   -30.0630 h1         1 90X       0.069700
     51 H18         18.6390     4.8610   -27.0360 hc         1 90X       0.091700
     52 H2A         19.8470     6.9130   -25.1530 hc         1 90X       0.060700
     53 H19         19.7710     6.9890   -26.9140 hc         1 90X       0.060700
     54 H12         18.5660     6.8430   -32.4850 h1         1 90X       0.075200
     55 H11         19.7140     7.9270   -31.7140 h1         1 90X       0.075200
     56 H15         21.6970     5.3580   -26.2510 h1         1 90X       0.093700
     57 H16         20.2320     4.5180   -24.4630 hc         1 90X       0.070200
     58 H17         19.6560     3.2170   -25.4890 hc         1 90X       0.070200
     59 H2C         17.8940     8.2740   -25.3860 h1         1 90X       0.049700
     60 H2B         17.4150     7.4840   -26.8910 h1         1 90X       0.049700
     61 H6          15.8590    10.5620   -27.9460 ha         1 90X       0.144000
     62 H94         16.2050     6.5120   -24.7700 hn         1 90X       0.324500
     63 H22         24.6580     5.6430   -22.7680 h1         1 90X       0.057200
     64 H21         23.2790     4.8130   -22.0740 h1         1 90X       0.057200
     65 H23         24.4850     2.6660   -22.1120 hc         1 90X       0.063200
     66 H24         25.3650     3.8840   -21.2070 hc         1 90X       0.063200
     67 H25         27.4180     4.9260   -22.1740 ha         1 90X       0.110000
     68 H26         29.3660     4.6120   -23.6450 ha         1 90X       0.111500
     69 H27         29.3230     2.8770   -25.4130 ha         1 90X       0.113000
     70 H28         27.3110     1.4610   -25.6880 ha         1 90X       0.111500
     71 H29         25.3690     1.7690   -24.2060 ha         1 90X       0.110000
     72 H32         24.1600     4.8320   -24.8600 hn         1 90X       0.332500
     73 H1          22.0070     2.3420   -25.9740 h1         1 90X       0.060700
     74 H42         24.1240     2.8490   -26.5650 ho         1 90X       0.450000
     75 O3          22.0780     2.9140   -23.5140 o          1 90X      -0.597100
@<TRIPOS>BOND
     1     1    10 1   
     2     1    18 1   
     3     1    41 1   
     4     2     3 ar  
     5     2    12 ar  
     6     2    25 1   
     7     3     4 ar  
     8     3    42 1   
     9     4     5 ar  
    10     4    43 1   
    11     5    23 ar  
    12     5    29 1   
    13     6     7 1   
    14     6    14 1   
    15     6    44 1   
    16     6    45 1   
    17     7     8 1   
    18     7    46 1   
    19     7    47 1   
    20     8     9 1   
    21     8    48 1   
    22     8    49 1   
    23     9    10 1   
    24     9    14 1   
    25     9    50 1   
    26    10    28 2   
    27    11    13 1   
    28    11    19 1   
    29    11    21 1   
    30    11    51 1   
    31    12    23 ar  
    32    12    30 1   
    33    13    20 1   
    34    13    52 1   
    35    13    53 1   
    36    14    15 1   
    37    15    16 2   
    38    15    17 1   
    39    17    25 1   
    40    17    54 1   
    41    17    55 1   
    42    18    19 1   
    43    18    22 1   
    44    18    56 1   
    45    19    57 1   
    46    19    58 1   
    47    20    24 1   
    48    20    59 1   
    49    20    60 1   
    50    21    24 1   
    51    21    26 2   
    52    22    27 1   
    53    22    31 1   
    54    22    73 1   
    55    23    61 1   
    56    24    62 1   
    57    27    74 1   
    58    31    40 1   
    59    31    75 2   
    60    32    33 1   
    61    32    40 1   
    62    32    63 1   
    63    32    64 1   
    64    33    34 1   
    65    33    65 1   
    66    33    66 1   
    67    34    35 ar  
    68    34    39 ar  
    69    35    36 ar  
    70    35    67 1   
    71    36    37 ar  
    72    36    68 1   
    73    37    38 ar  
    74    37    69 1   
    75    38    39 ar  
    76    38    70 1   
    77    39    71 1   
    78    40    72 1   
@<TRIPOS>SUBSTRUCTURE
     1 90X         1 TEMP              0 ****  ****    0 ROOT
