@<TRIPOS>MOLECULE
90X
   75    78     1     0     0
SMALL
No Charge or Current Charge


@<TRIPOS>ATOM
      1 N1          21.1930     4.1010   -27.7670 ns         1 90X      -0.487900
      2 C2          17.9760     8.9030   -29.8020 ca         1 90X       0.156100
      3 C3          19.2450     9.0430   -29.1900 ca         1 90X      -0.173000
      4 C4          19.3650     9.7160   -27.9610 ca         1 90X      -0.064000
      5 C5          18.2290    10.2560   -27.3390 ca         1 90X       0.081000
      6 C8          21.1800     5.7000   -32.3260 c5         1 90X       0.105000
      7 C9          22.0520     4.4190   -32.3310 c5         1 90X      -0.092400
      8 C10         22.4290     4.2820   -30.8350 c5         1 90X      -0.085400
      9 C11         21.0650     4.5500   -30.1280 c5         1 90X       0.027700
     10 C12         21.3440     5.1090   -28.6960 c          1 90X       0.611100
     11 C15         18.7810     4.9710   -26.1780 c5         1 90X      -0.156700
     12 C7          16.8410     9.4580   -29.1700 ca         1 90X       0.088000
     13 C16         18.9700     6.5040   -25.9980 c5         1 90X      -0.089400
     14 N           20.4500     5.5440   -31.0510 n          1 90X      -0.402800
     15 C           19.2430     6.2080   -30.7450 c          1 90X       0.577100
     16 O           18.5710     5.8440   -29.7850 o          1 90X      -0.585100
     17 C1          18.8500     7.4320   -31.6120 c3         1 90X       0.082600
     18 C13         21.3170     4.2790   -26.3120 c3         1 90X       0.119700
     19 C14         19.9340     4.0820   -25.6280 c3         1 90X      -0.073400
     20 C17         17.5120     7.0110   -26.1620 c5         1 90X       0.096000
     21 C18         17.4260     4.7240   -25.5020 c          1 90X       0.564000
     22 C19         22.4360     3.3670   -25.7210 c3         1 90X       0.067300
     23 C6          16.9680    10.1300   -27.9430 ca         1 90X      -0.068000
     24 N2          16.7790     5.9300   -25.5070 ns         1 90X      -0.512900
     25 O1          17.8060     8.2340   -31.0050 os         1 90X      -0.300100
     26 O2          17.0400     3.7620   -24.8590 o          1 90X      -0.560000
     27 O4          23.6230     3.4010   -26.5670 oh         1 90X      -0.652000
     28 O5          21.6350     6.2630   -28.4010 o          1 90X      -0.604100
     29 Cl          18.3840    11.0820   -25.7950 cl         1 90X      -0.198000
     30 Cl1         15.2410     9.3040   -29.8970 cl         1 90X      -0.174000
     31 C20         22.7570     3.7530   -24.2450 c          1 90X       0.560100
     32 C21         24.3130     5.1380   -22.8160 c3         1 90X       0.107000
     33 C22         25.1960     4.0640   -22.1420 c3         1 90X      -0.062100
     34 C23         26.2790     3.5200   -23.0670 ca         1 90X      -0.077300
     35 C24         27.3920     4.3170   -23.4020 ca         1 90X      -0.112000
     36 C25         28.3860     3.8220   -24.2630 ca         1 90X      -0.109500
     37 C26         28.2740     2.5270   -24.7960 ca         1 90X      -0.110000
     38 C27         27.1670     1.7270   -24.4660 ca         1 90X      -0.109500
     39 C28         26.1730     2.2220   -23.6040 ca         1 90X      -0.112000
     40 N3          23.7560     4.6900   -24.0960 ns         1 90X      -0.490900
     41 H93         20.9850     3.1760   -28.1220 hn         1 90X       0.314500
     42 H31         20.1440     8.6380   -29.6450 ha         1 90X       0.135000
     43 H41         20.3400     9.8160   -27.4880 ha         1 90X       0.135000
     44 H81         21.7970     6.6090   -32.3110 h1         1 90X       0.051700
     45 H82         20.5110     5.7400   -33.1950 h1         1 90X       0.051700
     46 H92         21.4750     3.5520   -32.6740 hc         1 90X       0.059200
     47 H91         22.9270     4.5110   -32.9850 hc         1 90X       0.059200
     48 H13         22.8420     3.2980   -30.5870 hc         1 90X       0.066700
     49 H10         23.1820     5.0300   -30.5570 hc         1 90X       0.066700
     50 H14         20.4460     3.6450   -30.0720 h1         1 90X       0.069700
     51 H18         18.6320     4.7710   -27.2450 hc         1 90X       0.091700
     52 H2A         19.3550     6.7450   -24.9990 hc         1 90X       0.060700
     53 H19         19.6510     6.9500   -26.7300 hc         1 90X       0.060700
     54 H12         18.5130     7.0450   -32.5800 h1         1 90X       0.075200
     55 H11         19.7470     8.0340   -31.7950 h1         1 90X       0.075200
     56 H15         21.6250     5.3160   -26.1190 h1         1 90X       0.093700
     57 H16         20.0370     4.2660   -24.5520 hc         1 90X       0.070200
     58 H17         19.6500     3.0260   -25.7270 hc         1 90X       0.070200
     59 H2C         17.3580     7.9850   -25.6800 h1         1 90X       0.049700
     60 H2B         17.2340     7.0980   -27.2220 h1         1 90X       0.049700
     61 H6          16.0900    10.5490   -27.4590 ha         1 90X       0.144000
     62 H94         15.8920     6.0140   -25.0260 hn         1 90X       0.324500
     63 H22         24.9160     6.0370   -23.0000 h1         1 90X       0.057200
     64 H21         23.4920     5.4170   -22.1430 h1         1 90X       0.057200
     65 H23         24.5540     3.2490   -21.7860 hc         1 90X       0.063200
     66 H24         25.6520     4.4990   -21.2450 hc         1 90X       0.063200
     67 H25         27.4850     5.3220   -22.9940 ha         1 90X       0.110000
     68 H26         29.2430     4.4430   -24.5180 ha         1 90X       0.111500
     69 H27         29.0430     2.1440   -25.4630 ha         1 90X       0.113000
     70 H28         27.0800     0.7240   -24.8780 ha         1 90X       0.111500
     71 H29         25.3180     1.5960   -23.3560 ha         1 90X       0.110000
     72 H32         24.1830     5.0210   -24.9550 hn         1 90X       0.332500
     73 H1          22.0480     2.3390   -25.6950 h1         1 90X       0.060700
     74 H42         24.2350     2.6960   -26.2560 ho         1 90X       0.450000
     75 O3          22.2060     3.2300   -23.2850 o          1 90X      -0.597100
@<TRIPOS>BOND
     1     1    10 1   
     2     1    18 1   
     3     1    41 1   
     4     2     3 ar  
     5     2    12 ar  
     6     2    25 1   
     7     3     4 ar  
     8     3    42 1   
     9     4     5 ar  
    10     4    43 1   
    11     5    23 ar  
    12     5    29 1   
    13     6     7 1   
    14     6    14 1   
    15     6    44 1   
    16     6    45 1   
    17     7     8 1   
    18     7    46 1   
    19     7    47 1   
    20     8     9 1   
    21     8    48 1   
    22     8    49 1   
    23     9    10 1   
    24     9    14 1   
    25     9    50 1   
    26    10    28 2   
    27    11    13 1   
    28    11    19 1   
    29    11    21 1   
    30    11    51 1   
    31    12    23 ar  
    32    12    30 1   
    33    13    20 1   
    34    13    52 1   
    35    13    53 1   
    36    14    15 1   
    37    15    16 2   
    38    15    17 1   
    39    17    25 1   
    40    17    54 1   
    41    17    55 1   
    42    18    19 1   
    43    18    22 1   
    44    18    56 1   
    45    19    57 1   
    46    19    58 1   
    47    20    24 1   
    48    20    59 1   
    49    20    60 1   
    50    21    24 1   
    51    21    26 2   
    52    22    27 1   
    53    22    31 1   
    54    22    73 1   
    55    23    61 1   
    56    24    62 1   
    57    27    74 1   
    58    31    40 1   
    59    31    75 2   
    60    32    33 1   
    61    32    40 1   
    62    32    63 1   
    63    32    64 1   
    64    33    34 1   
    65    33    65 1   
    66    33    66 1   
    67    34    35 ar  
    68    34    39 ar  
    69    35    36 ar  
    70    35    67 1   
    71    36    37 ar  
    72    36    68 1   
    73    37    38 ar  
    74    37    69 1   
    75    38    39 ar  
    76    38    70 1   
    77    39    71 1   
    78    40    72 1   
@<TRIPOS>SUBSTRUCTURE
     1 90X         1 TEMP              0 ****  ****    0 ROOT
