@<TRIPOS>MOLECULE
90Z
   69    72     1     0     0
SMALL
abcg2


@<TRIPOS>ATOM
      1 CAS          5.9500    -0.7890     1.2330 c6         1 90Z      -0.110400
      2 CAT          7.0250    -1.8860     1.2550 c6         1 90Z       0.182700
      3 CAU          6.4360    -3.2470     0.8570 c3         1 90Z      -0.084600
      4 CAV          7.5370    -2.0590     2.6890 c3         1 90Z      -0.084600
      5 NAW          8.1750    -1.5430     0.3780 n3         1 90Z      -0.465100
      6 OAX          8.8420    -0.4640     1.0060 oh         1 90Z      -0.485300
      7 CAY          7.8490    -1.0860    -0.9970 c6         1 90Z       0.182700
      8 CAZ          7.4380    -2.2740    -1.8780 c3         1 90Z      -0.084600
      9 CBA          9.1190    -0.5130    -1.6360 c3         1 90Z      -0.084600
     10 CBB          6.7580    -0.0040    -0.9980 c6         1 90Z      -0.110400
     11 CAR          5.5340    -0.4050    -0.1850 c6         1 90Z       0.119700
     12 NAQ          4.5880     0.6980    -0.1810 ns         1 90Z      -0.502900
     13 CAP          3.2780     0.5500     0.0610 c          1 90Z       0.610700
     14 OBC          2.7540    -0.5440     0.2350 o          1 90Z      -0.597100
     15 CAO          2.4590     1.8080     0.0910 ca         1 90Z      -0.119600
     16 CBD          1.0840     1.6650    -0.0870 ca         1 90Z      -0.077000
     17 CAN          3.0090     3.0660     0.3110 ca         1 90Z      -0.114000
     18 CAM          2.1810     4.1800     0.3270 ca         1 90Z      -0.090000
     19 CAL          0.8200     4.0480     0.1340 ca         1 90Z      -0.149000
     20 CAK          0.2580     2.7840    -0.0690 ca         1 90Z       0.292000
     21 NAJ         -1.1260     2.7390    -0.2460 nu         1 90Z      -0.921900
     22 CAI         -1.9470     1.6700    -0.2620 cc         1 90Z       0.737300
     23 SBE         -3.6650     1.9270    -0.4060 ss         1 90Z      -0.112400
     24 NAH         -1.5920     0.4200    -0.1750 nd         1 90Z      -0.718000
     25 CAG         -2.6740    -0.3920    -0.2050 cd         1 90Z       0.401900
     26 CAF         -3.8920     0.2050    -0.3170 cc         1 90Z      -0.333600
     27 CAE         -5.1790    -0.4970    -0.3320 c          1 90Z       0.662700
     28 OBF         -5.2340    -1.7120    -0.4030 o          1 90Z      -0.568100
     29 NAD         -6.2900     0.2820    -0.2510 ns         1 90Z      -0.167000
     30 CAC         -7.5890    -0.2590    -0.2170 ca         1 90Z      -0.040000
     31 CAB         -8.1520    -0.8300    -1.3560 ca         1 90Z       0.133000
     32 CLA         -7.2560    -0.8540    -2.8330 cl         1 90Z      -0.183000
     33 CBK         -9.4310    -1.3610    -1.3370 ca         1 90Z      -0.101000
     34 CBJ        -10.1630    -1.3020    -0.1620 ca         1 90Z      -0.100000
     35 CBI         -9.6190    -0.7220     0.9750 ca         1 90Z      -0.104000
     36 CBG         -8.3290    -0.2030     0.9680 ca         1 90Z      -0.076300
     37 CBH         -7.7310     0.3950     2.2060 c3         1 90Z      -0.047800
     38 H1           5.0790    -1.1260     1.8000 hc         1 90Z       0.055700
     39 H2           6.3280     0.1060     1.7370 hc         1 90Z       0.055700
     40 H3           5.8120    -3.6170     1.6710 hc         1 90Z       0.041367
     41 H4           5.8080    -3.2310    -0.0280 hc         1 90Z       0.041367
     42 H5           7.2300    -3.9770     0.6950 hc         1 90Z       0.041367
     43 H6           6.7240    -2.4250     3.3170 hc         1 90Z       0.041367
     44 H7           8.3420    -2.7960     2.7310 hc         1 90Z       0.041367
     45 H8           7.8950    -1.1320     3.1300 hc         1 90Z       0.041367
     46 H9           9.7150    -0.8160     1.2050 ho         1 90Z       0.451000
     47 H10          6.4430    -2.6600    -1.6820 hc         1 90Z       0.041367
     48 H11          7.4480    -1.9560    -2.9210 hc         1 90Z       0.041367
     49 H12          8.1480    -3.0950    -1.7740 hc         1 90Z       0.041367
     50 H13          9.9360    -1.2380    -1.5970 hc         1 90Z       0.041367
     51 H14          8.9260    -0.2940    -2.6870 hc         1 90Z       0.041367
     52 H15          9.4490     0.4090    -1.1640 hc         1 90Z       0.041367
     53 H16          7.1720     0.9220    -0.5830 hc         1 90Z       0.055700
     54 H17          6.4670     0.2190    -2.0280 hc         1 90Z       0.055700
     55 H18          5.0370    -1.2530    -0.6630 h1         1 90Z       0.075700
     56 H19          4.9570     1.6170    -0.3600 hn         1 90Z       0.312500
     57 H20          0.6690     0.6820    -0.2400 ha         1 90Z       0.177000
     58 H21          4.0660     3.2040     0.4940 ha         1 90Z       0.114000
     59 H22          2.6000     5.1610     0.5020 ha         1 90Z       0.117000
     60 H23          0.1840     4.9250     0.1510 ha         1 90Z       0.111000
     61 H24         -1.5710     3.6430    -0.3030 hn         1 90Z       0.505000
     62 H25         -2.5350    -1.4620    -0.1320 h4         1 90Z       0.065100
     63 H26         -6.2010     1.2650    -0.0390 hn         1 90Z       0.157000
     64 H27         -9.8500    -1.8040    -2.2290 ha         1 90Z       0.131000
     65 H28        -11.1640    -1.7110    -0.1350 ha         1 90Z       0.119000
     66 H29        -10.2000    -0.6850     1.8870 ha         1 90Z       0.117000
     67 H30         -7.4730     1.4470     2.0690 hc         1 90Z       0.045700
     68 H31         -8.4300     0.3360     3.0380 hc         1 90Z       0.045700
     69 H32         -6.8170    -0.1240     2.4970 hc         1 90Z       0.045700
@<TRIPOS>BOND
     1     1     2 1   
     2     1    11 1   
     3     1    38 1   
     4     1    39 1   
     5     2     3 1   
     6     2     4 1   
     7     2     5 1   
     8     3    40 1   
     9     3    41 1   
    10     3    42 1   
    11     4    43 1   
    12     4    44 1   
    13     4    45 1   
    14     5     6 1   
    15     5     7 1   
    16     6    46 1   
    17     7     8 1   
    18     7     9 1   
    19     7    10 1   
    20     8    47 1   
    21     8    48 1   
    22     8    49 1   
    23     9    50 1   
    24     9    51 1   
    25     9    52 1   
    26    10    11 1   
    27    10    53 1   
    28    10    54 1   
    29    11    12 1   
    30    11    55 1   
    31    12    13 1   
    32    12    56 1   
    33    13    14 2   
    34    13    15 1   
    35    15    16 ar  
    36    15    17 ar  
    37    16    20 ar  
    38    16    57 1   
    39    17    18 ar  
    40    17    58 1   
    41    18    19 ar  
    42    18    59 1   
    43    19    20 ar  
    44    19    60 1   
    45    20    21 1   
    46    21    22 1   
    47    21    61 1   
    48    22    23 1   
    49    22    24 2   
    50    23    26 1   
    51    24    25 1   
    52    25    26 2   
    53    25    62 1   
    54    26    27 1   
    55    27    28 2   
    56    27    29 1   
    57    29    30 1   
    58    29    63 1   
    59    30    31 ar  
    60    30    36 ar  
    61    31    32 1   
    62    31    33 ar  
    63    33    34 ar  
    64    33    64 1   
    65    34    35 ar  
    66    34    65 1   
    67    35    36 ar  
    68    35    66 1   
    69    36    37 1   
    70    37    67 1   
    71    37    68 1   
    72    37    69 1   
@<TRIPOS>SUBSTRUCTURE
     1 90Z         1 TEMP              0 ****  ****    0 ROOT
