@<TRIPOS>MOLECULE
90Z
   69    72     1     0     0
SMALL
No Charge or Current Charge


@<TRIPOS>ATOM
      1 CAS          6.1240    -0.7270     1.3010 c6         1 90Z      -0.110400
      2 CAT          7.2510    -1.8030     1.4430 c6         1 90Z       0.182700
      3 CAU          6.7010    -3.2330     1.1140 c3         1 90Z      -0.084600
      4 CAV          7.6750    -1.9040     2.9510 c3         1 90Z      -0.084600
      5 NAW          8.4370    -1.4350     0.5750 n3         1 90Z      -0.465100
      6 OAX          9.1070    -0.2530     1.1740 oh         1 90Z      -0.485300
      7 CAY          8.0990    -1.0640    -0.9280 c6         1 90Z       0.182700
      8 CAZ          7.7400    -2.3130    -1.8490 c3         1 90Z      -0.084600
      9 CBA          9.3360    -0.4190    -1.7030 c3         1 90Z      -0.084600
     10 CBB          6.9060    -0.0170    -1.0150 c6         1 90Z      -0.110400
     11 CAR          5.6880    -0.4630    -0.1680 c6         1 90Z       0.119700
     12 NAQ          4.6510     0.5750    -0.2110 ns         1 90Z      -0.502900
     13 CAP          3.3050     0.3750     0.0080 c          1 90Z       0.610700
     14 OBC          2.8610    -0.7400     0.2450 o          1 90Z      -0.597100
     15 CAO          2.4150     1.6020    -0.0590 ca         1 90Z      -0.119600
     16 CBD          1.0230     1.4580     0.1470 ca         1 90Z      -0.077000
     17 CAN          2.9280     2.8970    -0.3180 ca         1 90Z      -0.114000
     18 CAM          2.0680     4.0070    -0.3610 ca         1 90Z      -0.090000
     19 CAL          0.6900     3.8420    -0.1520 ca         1 90Z      -0.149000
     20 CAK          0.1570     2.5670     0.0920 ca         1 90Z       0.292000
     21 NAJ         -1.2160     2.4460     0.3120 nu         1 90Z      -0.921900
     22 CAI         -2.1400     1.5120    -0.0460 cc         1 90Z       0.737300
     23 SBE         -3.8370     1.6790     0.3200 ss         1 90Z      -0.112400
     24 NAH         -1.7760     0.4510    -0.7300 nd         1 90Z      -0.718000
     25 CAG         -2.8880    -0.3380    -0.9980 cd         1 90Z       0.401900
     26 CAF         -4.0700     0.1630    -0.5110 cc         1 90Z      -0.333600
     27 CAE         -5.3520    -0.5300    -0.6940 c          1 90Z       0.662700
     28 OBF         -5.4570    -1.6020    -1.2760 o          1 90Z      -0.568100
     29 NAD         -6.4180     0.1380    -0.1190 ns         1 90Z      -0.167000
     30 CAC         -7.8020    -0.1800    -0.1280 ca         1 90Z      -0.040000
     31 CAB         -8.5140    -0.3620    -1.3400 ca         1 90Z       0.133000
     32 ClA         -7.7490    -0.1280    -2.9130 cl         1 90Z      -0.183000
     33 CBK         -9.8830    -0.6750    -1.3130 ca         1 90Z      -0.101000
     34 CBJ        -10.5560    -0.8000    -0.0880 ca         1 90Z      -0.100000
     35 CBI         -9.8620    -0.5990     1.1150 ca         1 90Z      -0.104000
     36 CBG         -8.4890    -0.2820     1.1050 ca         1 90Z      -0.076300
     37 CBH         -7.7590    -0.0700     2.4290 c3         1 90Z      -0.047800
     38 H1           5.2500    -1.0380     1.8890 hc         1 90Z       0.055700
     39 H2           6.4600     0.2190     1.7480 hc         1 90Z       0.055700
     40 H3           6.0580    -3.6120     1.9170 hc         1 90Z       0.041367
     41 H4           6.0810    -3.2660     0.2180 hc         1 90Z       0.041367
     42 H5           7.5180    -3.9530     0.9870 hc         1 90Z       0.041367
     43 H6           6.8450    -2.2430     3.5830 hc         1 90Z       0.041367
     44 H7           8.5020    -2.6110     3.0860 hc         1 90Z       0.041367
     45 H8           7.9930    -0.9380     3.3610 hc         1 90Z       0.041367
     46 H9          10.0100    -0.5720     1.4080 ho         1 90Z       0.451000
     47 H10          6.7230    -2.6810    -1.7030 hc         1 90Z       0.041367
     48 H11          7.8020    -2.0670    -2.9160 hc         1 90Z       0.041367
     49 H12          8.4290    -3.1450    -1.6660 hc         1 90Z       0.041367
     50 H13         10.1990    -1.0950    -1.6990 hc         1 90Z       0.041367
     51 H14          9.0960    -0.1930    -2.7490 hc         1 90Z       0.041367
     52 H15          9.6580     0.5270    -1.2500 hc         1 90Z       0.041367
     53 H16          7.2520     0.9640    -0.6610 hc         1 90Z       0.055700
     54 H17          6.6020     0.1260    -2.0610 hc         1 90Z       0.055700
     55 H18          5.2620    -1.3800    -0.5990 h1         1 90Z       0.075700
     56 H19          4.9380     1.5250    -0.4010 hn         1 90Z       0.312500
     57 H20          0.6090     0.4780     0.3620 ha         1 90Z       0.177000
     58 H21          3.9890     3.0640    -0.4830 ha         1 90Z       0.114000
     59 H22          2.4720     4.9980    -0.5550 ha         1 90Z       0.117000
     60 H23          0.0360     4.7090    -0.1870 ha         1 90Z       0.111000
     61 H24         -1.6730     3.3030     0.6110 hn         1 90Z       0.505000
     62 H25         -2.7680    -1.2620    -1.5530 h4         1 90Z       0.065100
     63 H26         -6.1740     0.9770     0.3890 hn         1 90Z       0.157000
     64 H27        -10.4260    -0.8090    -2.2460 ha         1 90Z       0.131000
     65 H28        -11.6170    -1.0420    -0.0720 ha         1 90Z       0.119000
     66 H29        -10.3970    -0.6890     2.0580 ha         1 90Z       0.117000
     67 H30         -7.3430     0.9430     2.4930 hc         1 90Z       0.045700
     68 H31         -8.4260    -0.2040     3.2890 hc         1 90Z       0.045700
     69 H32         -6.9330    -0.7820     2.5430 hc         1 90Z       0.045700
@<TRIPOS>BOND
     1     1     2 1   
     2     1    11 1   
     3     1    38 1   
     4     1    39 1   
     5     2     3 1   
     6     2     4 1   
     7     2     5 1   
     8     3    40 1   
     9     3    41 1   
    10     3    42 1   
    11     4    43 1   
    12     4    44 1   
    13     4    45 1   
    14     5     6 1   
    15     5     7 1   
    16     6    46 1   
    17     7     8 1   
    18     7     9 1   
    19     7    10 1   
    20     8    47 1   
    21     8    48 1   
    22     8    49 1   
    23     9    50 1   
    24     9    51 1   
    25     9    52 1   
    26    10    11 1   
    27    10    53 1   
    28    10    54 1   
    29    11    12 1   
    30    11    55 1   
    31    12    13 1   
    32    12    56 1   
    33    13    14 2   
    34    13    15 1   
    35    15    16 ar  
    36    15    17 ar  
    37    16    20 ar  
    38    16    57 1   
    39    17    18 ar  
    40    17    58 1   
    41    18    19 ar  
    42    18    59 1   
    43    19    20 ar  
    44    19    60 1   
    45    20    21 1   
    46    21    22 1   
    47    21    61 1   
    48    22    23 1   
    49    22    24 2   
    50    23    26 1   
    51    24    25 1   
    52    25    26 2   
    53    25    62 1   
    54    26    27 1   
    55    27    28 2   
    56    27    29 1   
    57    29    30 1   
    58    29    63 1   
    59    30    31 ar  
    60    30    36 ar  
    61    31    32 1   
    62    31    33 ar  
    63    33    34 ar  
    64    33    64 1   
    65    34    35 ar  
    66    34    65 1   
    67    35    36 ar  
    68    35    66 1   
    69    36    37 1   
    70    37    67 1   
    71    37    68 1   
    72    37    69 1   
@<TRIPOS>SUBSTRUCTURE
     1 90Z         1 TEMP              0 ****  ****    0 ROOT
