@<TRIPOS>MOLECULE
910
   42    44     1     0     0
SMALL
bcc


@<TRIPOS>ATOM
      1 S1           0.7500     1.5530     0.9670 ss         1 910      -0.071800
      2 C2           2.4090     1.6010     0.5200 cc         1 910      -0.096700
      3 C3           2.8580     0.3540     0.1770 cd         1 910       0.109100
      4 C4           1.8260    -0.6290     0.2730 cd         1 910      -0.028900
      5 C5           0.6210    -0.1430     0.6930 cc         1 910      -0.115100
      6 C6           3.0880     2.9410     0.6110 c          1 910       0.944200
      7 O7           2.3420     3.8640     0.9950 o          1 910      -0.808300
      8 O8           4.2910     3.0020     0.3110 o          1 910      -0.808300
      9 C9          -0.6580    -0.8220     0.9190 ca         1 910       0.090000
     10 C10         -1.8220    -0.2740     0.3940 ca         1 910      -0.192000
     11 C11         -3.0740    -0.8640     0.6200 ca         1 910       0.151600
     12 C12         -3.1260    -2.0290     1.3940 ca         1 910      -0.227000
     13 C13         -1.9590    -2.5720     1.9130 ca         1 910      -0.107000
     14 C14         -0.7250    -1.9850     1.6910 ca         1 910      -0.153000
     15 BR19         2.1550    -2.4070    -0.2170 br         1 910      -0.116100
     16 O20          4.1040     0.0230    -0.1970 os         1 910      -0.268900
     17 C21          4.4250     0.3450    -1.5480 c3         1 910       0.002400
     18 C22          5.8610    -0.0690    -1.8880 c          1 910       0.944600
     19 O25          6.1950     0.2020    -3.0590 o          1 910      -0.846800
     20 O26          6.5440    -0.6140    -1.0090 o          1 910      -0.846800
     21 N29         -4.1930    -0.3030     0.0510 nu         1 910      -0.761600
     22 C30         -5.5240    -0.6660     0.4900 c3         1 910       0.259100
     23 C31         -6.5510     0.1230    -0.2740 ca         1 910      -0.094300
     24 C34         -6.7520    -0.1130    -1.6330 ca         1 910      -0.111000
     25 C35         -7.6880     0.6220    -2.3450 ca         1 910      -0.137000
     26 C36         -8.4350     1.6070    -1.7070 ca         1 910      -0.132000
     27 C37         -8.2380     1.8510    -0.3560 ca         1 910      -0.137000
     28 C38         -7.2980     1.1130     0.3550 ca         1 910      -0.111000
     29 H10         -1.7640     0.6190    -0.2190 ha         1 910       0.141000
     30 H12         -4.0700    -2.5150     1.6010 ha         1 910       0.106000
     31 H13         -2.0220    -3.4670     2.5190 ha         1 910       0.107000
     32 H14          0.1670    -2.4040     2.1350 ha         1 910       0.146000
     33 H211         4.3090     1.4190    -1.7120 h1         1 910       0.019200
     34 H212         3.7350    -0.1690    -2.2290 h1         1 910       0.019200
     35 HN29        -4.0910     0.6670    -0.2040 hn         1 910       0.411800
     36 H301        -5.6810    -1.7330     0.3090 h1         1 910       0.036200
     37 H302        -5.6590    -0.5060     1.5680 h1         1 910       0.036200
     38 H34         -6.1750    -0.8810    -2.1350 ha         1 910       0.137500
     39 H35         -7.8390     0.4250    -3.3990 ha         1 910       0.124500
     40 H36         -9.1670     2.1770    -2.2630 ha         1 910       0.121000
     41 H37         -8.8120     2.6170     0.1490 ha         1 910       0.124500
     42 H38         -7.1440     1.3090     1.4090 ha         1 910       0.137500
@<TRIPOS>BOND
     1     1     2 1   
     2     1     5 1   
     3     2     3 2   
     4     2     6 1   
     5     3     4 1   
     6     3    16 1   
     7     4     5 2   
     8     4    15 1   
     9     5     9 1   
    10     6     7 1   
    11     6     8 1   
    12     9    10 ar  
    13     9    14 ar  
    14    10    11 ar  
    15    10    29 1   
    16    11    12 ar  
    17    11    21 1   
    18    12    13 ar  
    19    12    30 1   
    20    13    14 ar  
    21    13    31 1   
    22    14    32 1   
    23    16    17 1   
    24    17    18 1   
    25    17    33 1   
    26    17    34 1   
    27    18    19 1   
    28    18    20 1   
    29    21    22 1   
    30    21    35 1   
    31    22    23 1   
    32    22    36 1   
    33    22    37 1   
    34    23    24 ar  
    35    23    28 ar  
    36    24    25 ar  
    37    24    38 1   
    38    25    26 ar  
    39    25    39 1   
    40    26    27 ar  
    41    26    40 1   
    42    27    28 ar  
    43    27    41 1   
    44    28    42 1   
@<TRIPOS>SUBSTRUCTURE
     1 910         1 TEMP              0 ****  ****    0 ROOT
