@<TRIPOS>MOLECULE
910
   42    44     1     0     0
SMALL
No Charge or Current Charge


@<TRIPOS>ATOM
      1 S1           0.8610     1.8210     1.4730 ss         1 910       0.218000
      2 C2           2.5180     1.7980     0.8830 cc         1 910      -0.241600
      3 C3           2.7830     0.6000     0.2530 cd         1 910       0.109100
      4 C4           1.7160    -0.3550     0.2870 cd         1 910      -0.028900
      5 C5           0.6200     0.1620     0.9390 cc         1 910      -0.260000
      6 C6           3.4220     2.9590     1.0590 c          1 910       0.733600
      7 O7           2.9820     3.9370     1.6450 o          1 910      -0.703000
      8 O8           4.5640     2.9250     0.6270 o          1 910      -0.703000
      9 C9          -0.6110    -0.5970     1.1280 ca         1 910       0.090000
     10 C10         -1.8190    -0.1120     0.5960 ca         1 910      -0.174000
     11 C11         -3.0160    -0.8180     0.7810 ca         1 910       0.290000
     12 C12         -3.0080    -2.0190     1.5150 ca         1 910      -0.209000
     13 C13         -1.8090    -2.5050     2.0610 ca         1 910      -0.089000
     14 C14         -0.6150    -1.7920     1.8710 ca         1 910      -0.135000
     15 Br19         1.8160    -2.1160    -0.4180 br         1 910      -0.116100
     16 O20          4.0020     0.3300    -0.3100 os         1 910      -0.292100
     17 C21          4.0920     0.1580    -1.7460 c3         1 910       0.025600
     18 C22          5.5160    -0.2530    -2.2340 c          1 910       0.734000
     19 O25          5.6930    -0.3560    -3.4410 o          1 910      -0.741500
     20 O26          6.4040    -0.4670    -1.4160 o          1 910      -0.741500
     21 N29         -4.1940    -0.3110     0.2320 nu         1 910      -0.955200
     22 C30         -5.5390    -0.8940     0.3020 c3         1 910       0.259100
     23 C31         -6.5330    -0.0100    -0.4400 ca         1 910      -0.094300
     24 C34         -6.7820    -0.2150    -1.8120 ca         1 910      -0.093000
     25 C35         -7.7010     0.6010    -2.4950 ca         1 910      -0.119000
     26 C36         -8.3750     1.6270    -1.8120 ca         1 910      -0.114000
     27 C37         -8.1300     1.8370    -0.4450 ca         1 910      -0.119000
     28 C38         -7.2110     1.0220     0.2390 ca         1 910      -0.093000
     29 H10         -1.8190     0.8150     0.0300 ha         1 910       0.123000
     30 H12         -3.9250    -2.5800     1.6700 ha         1 910       0.088000
     31 H13         -1.8060    -3.4300     2.6340 ha         1 910       0.089000
     32 H14          0.3110    -2.1640     2.3030 ha         1 910       0.128000
     33 H211         3.8240     1.0970    -2.2480 h1         1 910       0.019200
     34 H212         3.3950    -0.6100    -2.0980 h1         1 910       0.019200
     35 HN29        -4.1090     0.5650    -0.2850 hn         1 910       0.467000
     36 H301        -5.5380    -1.8980    -0.1460 h1         1 910       0.036200
     37 H302        -5.8520    -0.9970     1.3500 h1         1 910       0.036200
     38 H34         -6.2620    -1.0070    -2.3470 ha         1 910       0.119500
     39 H35         -7.8900     0.4370    -3.5540 ha         1 910       0.106500
     40 H36         -9.0860     2.2580    -2.3410 ha         1 910       0.103000
     41 H37         -8.6500     2.6320     0.0850 ha         1 910       0.106500
     42 H38         -7.0240     1.1920     1.2980 ha         1 910       0.119500
@<TRIPOS>BOND
     1     1     2 1   
     2     1     5 1   
     3     2     3 2   
     4     2     6 1   
     5     3     4 1   
     6     3    16 1   
     7     4     5 2   
     8     4    15 1   
     9     5     9 1   
    10     6     7 1   
    11     6     8 1   
    12     9    10 ar  
    13     9    14 ar  
    14    10    11 ar  
    15    10    29 1   
    16    11    12 ar  
    17    11    21 1   
    18    12    13 ar  
    19    12    30 1   
    20    13    14 ar  
    21    13    31 1   
    22    14    32 1   
    23    16    17 1   
    24    17    18 1   
    25    17    33 1   
    26    17    34 1   
    27    18    19 1   
    28    18    20 1   
    29    21    22 1   
    30    21    35 1   
    31    22    23 1   
    32    22    36 1   
    33    22    37 1   
    34    23    24 ar  
    35    23    28 ar  
    36    24    25 ar  
    37    24    38 1   
    38    25    26 ar  
    39    25    39 1   
    40    26    27 ar  
    41    26    40 1   
    42    27    28 ar  
    43    27    41 1   
    44    28    42 1   
@<TRIPOS>SUBSTRUCTURE
     1 910         1 TEMP              0 ****  ****    0 ROOT
