@<TRIPOS>MOLECULE
912
   63    66     1     0     0
SMALL
bcc


@<TRIPOS>ATOM
      1 CAS          7.1940    -0.8620     1.0200 c6         1 912      -0.087900
      2 CAT          8.6700    -0.7450     0.6600 c6         1 912      -0.081900
      3 CAU          8.9570    -1.1140    -0.7960 c6         1 912       0.157800
      4 CAW          8.7500    -2.6070    -1.0430 c3         1 912      -0.118100
      5 OAV         10.3220    -0.7840    -1.0190 oh         1 912      -0.598800
      6 CAX          8.0600    -0.2710    -1.7120 c6         1 912      -0.081900
      7 CAY          6.5790    -0.3900    -1.3710 c6         1 912      -0.087900
      8 CAR          6.3280    -0.0170     0.0900 c6         1 912       0.112700
      9 NAQ          4.9330    -0.1690     0.4570 ns         1 912      -0.570900
     10 CAP          3.9890     0.7400     0.1730 c          1 912       0.681700
     11 OAZ          4.2390     1.8120    -0.3650 o          1 912      -0.606100
     12 CAO          2.5880     0.3870     0.5710 ca         1 912      -0.141600
     13 CBA          1.6920     1.4320     0.7680 ca         1 912      -0.075000
     14 CAN          2.1520    -0.9300     0.7160 ca         1 912      -0.122000
     15 CAM          0.8380    -1.1810     1.0790 ca         1 912      -0.126000
     16 CAL         -0.0490    -0.1380     1.2920 ca         1 912      -0.128000
     17 CAK          0.3670     1.1870     1.1280 ca         1 912       0.157400
     18 NAJ         -0.4860     2.2600     1.3640 ne         1 912      -0.658100
     19 CAI         -1.5400     2.4070     0.6660 c2         1 912       0.736100
     20 SBB         -1.9540     1.4600    -0.7880 ss         1 912      -0.298300
     21 NAH         -2.4870     3.3310     0.8940 nu         1 912      -0.846200
     22 CAG         -3.4660     3.5500    -0.1400 c5         1 912       0.245800
     23 CAF         -3.6130     2.2210    -0.8700 c5         1 912      -0.089600
     24 CAE         -4.5890     1.2660    -0.2030 c          1 912       0.684100
     25 OBC         -4.8800     1.3410     0.9720 o          1 912      -0.551100
     26 NAD         -5.0760     0.3140    -1.0300 ns         1 912      -0.491100
     27 CAC         -5.9360    -0.7060    -0.5770 ca         1 912       0.047600
     28 CAB         -5.4500    -1.7340     0.2270 ca         1 912       0.040400
     29 CLA         -3.7720    -1.7760     0.6380 cl         1 912      -0.089400
     30 CBH         -6.2810    -2.7430     0.6860 ca         1 912      -0.119000
     31 CBG         -7.6180    -2.7240     0.3220 ca         1 912      -0.114000
     32 CBF         -8.1110    -1.7130    -0.4880 ca         1 912      -0.123000
     33 CBD         -7.2850    -0.6900    -0.9420 ca         1 912      -0.068300
     34 CBE         -7.8220     0.4070    -1.8120 c3         1 912      -0.046800
     35 H1           6.8740    -1.9090     0.9680 hc         1 912       0.047950
     36 H2           7.0430    -0.5430     2.0540 hc         1 912       0.047950
     37 H3           8.9980     0.2870     0.8270 hc         1 912       0.052950
     38 H4           9.2630    -1.3750     1.3280 hc         1 912       0.052950
     39 H5           7.7280    -2.9290    -0.8470 hc         1 912       0.039700
     40 H6           8.9710    -2.8600    -2.0830 hc         1 912       0.039700
     41 H7           9.4100    -3.1970    -0.4050 hc         1 912       0.039700
     42 H8          10.5410    -1.0140    -1.9280 ho         1 912       0.402000
     43 H9           8.3660     0.7770    -1.6230 hc         1 912       0.052950
     44 H10          8.2250    -0.5570    -2.7560 hc         1 912       0.052950
     45 H11          5.9980     0.2640    -2.0240 hc         1 912       0.047950
     46 H12          6.2200    -1.4080    -1.5480 hc         1 912       0.047950
     47 H13          6.6010     1.0340     0.2310 h1         1 912       0.076700
     48 H14          4.6730    -1.0150     0.9380 hn         1 912       0.313500
     49 H15          2.0190     2.4560     0.6450 ha         1 912       0.162000
     50 H16          2.8120    -1.7680     0.5340 ha         1 912       0.125000
     51 H17          0.5000    -2.2020     1.1960 ha         1 912       0.133000
     52 H18         -1.0670    -0.3450     1.5950 ha         1 912       0.145000
     53 H19         -2.3200     4.0340     1.5980 hn         1 912       0.461800
     54 H20         -4.4120     3.8680     0.2940 h1         1 912       0.064700
     55 H21         -3.8670     2.3810    -1.9190 h1         1 912       0.096700
     56 H22         -4.8610     0.3550    -2.0150 hn         1 912       0.328500
     57 H23         -5.8880    -3.5330     1.3110 ha         1 912       0.151000
     58 H24         -8.2770    -3.5070     0.6740 ha         1 912       0.138000
     59 H25         -9.1580    -1.7110    -0.7660 ha         1 912       0.136000
     60 H26         -7.4550     0.3190    -2.8370 hc         1 912       0.045367
     61 H27         -8.9090     0.3710    -1.8510 hc         1 912       0.045367
     62 H28         -7.5270     1.3910    -1.4500 hc         1 912       0.045367
     63 H29         -3.1410     4.3180    -0.8470 h1         1 912       0.064700
@<TRIPOS>BOND
     1     1     2 1   
     2     1     8 1   
     3     1    35 1   
     4     1    36 1   
     5     2     3 1   
     6     2    37 1   
     7     2    38 1   
     8     3     4 1   
     9     3     5 1   
    10     3     6 1   
    11     4    39 1   
    12     4    40 1   
    13     4    41 1   
    14     5    42 1   
    15     6     7 1   
    16     6    43 1   
    17     6    44 1   
    18     7     8 1   
    19     7    45 1   
    20     7    46 1   
    21     8     9 1   
    22     8    47 1   
    23     9    10 1   
    24     9    48 1   
    25    10    11 2   
    26    10    12 1   
    27    12    13 ar  
    28    12    14 ar  
    29    13    17 ar  
    30    13    49 1   
    31    14    15 ar  
    32    14    50 1   
    33    15    16 ar  
    34    15    51 1   
    35    16    17 ar  
    36    16    52 1   
    37    17    18 1   
    38    18    19 2   
    39    19    20 1   
    40    19    21 1   
    41    20    23 1   
    42    21    22 1   
    43    21    53 1   
    44    22    23 1   
    45    22    54 1   
    46    22    63 1   
    47    23    24 1   
    48    23    55 1   
    49    24    25 2   
    50    24    26 1   
    51    26    27 1   
    52    26    56 1   
    53    27    28 ar  
    54    27    33 ar  
    55    28    29 1   
    56    28    30 ar  
    57    30    31 ar  
    58    30    57 1   
    59    31    32 ar  
    60    31    58 1   
    61    32    33 ar  
    62    32    59 1   
    63    33    34 1   
    64    34    60 1   
    65    34    61 1   
    66    34    62 1   
@<TRIPOS>SUBSTRUCTURE
     1 912         1 TEMP              0 ****  ****    0 ROOT
