@<TRIPOS>MOLECULE
912
   63    66     1     0     0
SMALL
No Charge or Current Charge


@<TRIPOS>ATOM
      1 CAS          6.7320    -1.6940     0.3700 c6         1 912      -0.087900
      2 CAT          8.2590    -1.5720     0.1150 c6         1 912      -0.081900
      3 CAU          8.5920    -1.0140    -1.3000 c6         1 912       0.181000
      4 CAW          8.2710    -2.0500    -2.4180 c3         1 912      -0.118100
      5 OAV          9.9950    -0.7580    -1.3650 oh         1 912      -0.661000
      6 CAX          7.8310     0.3270    -1.5220 c6         1 912      -0.081900
      7 CAY          6.3050     0.2020    -1.2630 c6         1 912      -0.087900
      8 CAR          6.0130    -0.3370     0.1620 c6         1 912       0.112700
      9 NAQ          4.5700    -0.4960     0.3680 ns         1 912      -0.503900
     10 CAP          3.6910     0.5060     0.7170 c          1 912       0.614700
     11 OAZ          4.0790     1.6510     0.9080 o          1 912      -0.606100
     12 CAO          2.2330     0.1140     0.8510 ca         1 912      -0.141600
     13 CBA          1.2830     1.0990     1.2080 ca         1 912      -0.057000
     14 CAN          1.7810    -1.2110     0.6310 ca         1 912      -0.104000
     15 CAM          0.4200    -1.5320     0.7700 ca         1 912      -0.108000
     16 CAL         -0.5080    -0.5410     1.1250 ca         1 912      -0.110000
     17 CAK         -0.0800     0.7810     1.3370 ca         1 912       0.157400
     18 NAJ         -1.0040     1.7780     1.6980 ne         1 912      -0.658100
     19 CAI         -1.8820     2.2370     0.8780 c2         1 912       0.736100
     20 SBB         -2.0000     1.7600    -0.8240 ss         1 912      -0.346200
     21 NAH         -2.7850     3.1630     1.3040 nu         1 912      -0.901400
     22 CAG         -3.2290     3.9600     0.1240 c5         1 912       0.245800
     23 CAF         -3.5090     2.8590    -0.9410 c5         1 912      -0.041700
     24 CAE         -4.8560     2.1620    -0.5730 c          1 912       0.617100
     25 OBC         -5.9510     2.7130    -0.5260 o          1 912      -0.551100
     26 NAD         -4.6710     0.8040    -0.3570 ns         1 912      -0.165000
     27 CAC         -5.5970    -0.1900     0.0530 ca         1 912      -0.045000
     28 CAB         -6.3710    -0.0450     1.2320 ca         1 912       0.132000
     29 ClA         -6.1770     1.3390     2.3110 cl         1 912      -0.181000
     30 CBH         -7.2750    -1.0510     1.6100 ca         1 912      -0.101000
     31 CBG         -7.4110    -2.2090     0.8290 ca         1 912      -0.096000
     32 CBF         -6.6290    -2.3710    -0.3240 ca         1 912      -0.105000
     33 CBD         -5.7150    -1.3720    -0.7160 ca         1 912      -0.068300
     34 CBE         -4.8750    -1.5760    -1.9740 c3         1 912      -0.046800
     35 H1           6.2980    -2.4590    -0.2890 hc         1 912       0.047950
     36 H2           6.5630    -2.0450     1.3970 hc         1 912       0.047950
     37 H3           8.6940    -0.9130     0.8790 hc         1 912       0.052950
     38 H4           8.7360    -2.5520     0.2550 hc         1 912       0.052950
     39 H5           7.2100    -2.3200    -2.4430 hc         1 912       0.039700
     40 H6           8.5280    -1.6600    -3.4100 hc         1 912       0.039700
     41 H7           8.8380    -2.9780    -2.2720 hc         1 912       0.039700
     42 H8          10.1840    -0.4620    -2.2810 ho         1 912       0.441000
     43 H9           8.2400     1.0960    -0.8500 hc         1 912       0.052950
     44 H10          8.0000     0.6960    -2.5430 hc         1 912       0.052950
     45 H11          5.8350     1.1860    -1.3890 hc         1 912       0.047950
     46 H12          5.8440    -0.4530    -2.0160 hc         1 912       0.047950
     47 H13          6.3970     0.3820     0.9020 h1         1 912       0.076700
     48 H14          4.1690    -1.4140     0.2320 hn         1 912       0.313500
     49 H15          1.5980     2.1250     1.3850 ha         1 912       0.144000
     50 H16          2.4690    -2.0050     0.3550 ha         1 912       0.107000
     51 H17          0.0840    -2.5540     0.6030 ha         1 912       0.115000
     52 H18         -1.5590    -0.7980     1.2350 ha         1 912       0.127000
     53 H19         -2.4840     3.6310     2.1560 hn         1 912       0.517000
     54 H20         -4.1180     4.5720     0.3330 h1         1 912       0.064700
     55 H21         -3.6100     3.2700    -1.9520 h1         1 912       0.096700
     56 H22         -3.7310     0.4670    -0.5190 hn         1 912       0.162000
     57 H23         -7.8630    -0.9370     2.5180 ha         1 912       0.133000
     58 H24         -8.1120    -2.9870     1.1260 ha         1 912       0.120000
     59 H25         -6.7340    -3.2780    -0.9150 ha         1 912       0.118000
     60 H26         -3.8040    -1.5670    -1.7380 hc         1 912       0.045367
     61 H27         -5.0950    -2.5330    -2.4610 hc         1 912       0.045367
     62 H28         -5.0650    -0.7840    -2.7080 hc         1 912       0.045367
     63 H29         -2.4380     4.6400    -0.2250 h1         1 912       0.064700
@<TRIPOS>BOND
     1     1     2 1   
     2     1     8 1   
     3     1    35 1   
     4     1    36 1   
     5     2     3 1   
     6     2    37 1   
     7     2    38 1   
     8     3     4 1   
     9     3     5 1   
    10     3     6 1   
    11     4    39 1   
    12     4    40 1   
    13     4    41 1   
    14     5    42 1   
    15     6     7 1   
    16     6    43 1   
    17     6    44 1   
    18     7     8 1   
    19     7    45 1   
    20     7    46 1   
    21     8     9 1   
    22     8    47 1   
    23     9    10 1   
    24     9    48 1   
    25    10    11 2   
    26    10    12 1   
    27    12    13 ar  
    28    12    14 ar  
    29    13    17 ar  
    30    13    49 1   
    31    14    15 ar  
    32    14    50 1   
    33    15    16 ar  
    34    15    51 1   
    35    16    17 ar  
    36    16    52 1   
    37    17    18 1   
    38    18    19 2   
    39    19    20 1   
    40    19    21 1   
    41    20    23 1   
    42    21    22 1   
    43    21    53 1   
    44    22    23 1   
    45    22    54 1   
    46    22    63 1   
    47    23    24 1   
    48    23    55 1   
    49    24    25 2   
    50    24    26 1   
    51    26    27 1   
    52    26    56 1   
    53    27    28 ar  
    54    27    33 ar  
    55    28    29 1   
    56    28    30 ar  
    57    30    31 ar  
    58    30    57 1   
    59    31    32 ar  
    60    31    58 1   
    61    32    33 ar  
    62    32    59 1   
    63    33    34 1   
    64    34    60 1   
    65    34    61 1   
    66    34    62 1   
@<TRIPOS>SUBSTRUCTURE
     1 912         1 TEMP              0 ****  ****    0 ROOT
