@<TRIPOS>MOLECULE
913
   24    25     1     0     0
SMALL
No Charge or Current Charge


@<TRIPOS>ATOM
      1 C1          -3.1210     0.9950    -0.6410 c3         1 913       0.195100
      2 N1          -3.7550     1.5670     0.5620 n8         1 913      -1.000200
      3 C2          -2.0030     0.0260    -0.2780 ca         1 913      -0.074300
      4 N2           1.7150    -0.0010     0.0690 na         1 913       0.227000
      5 C3          -2.3010    -1.3130     0.0410 ca         1 913      -0.088000
      6 C4          -1.2710    -2.2090     0.3690 ca         1 913      -0.102000
      7 C5           0.0650    -1.7740     0.3800 ca         1 913      -0.129000
      8 C6           0.3820    -0.4360     0.0630 ca         1 913       0.015800
      9 C7           2.7720    -0.7620    -0.4130 cc         1 913      -0.161000
     10 C8           3.8440     0.0460    -0.1530 cd         1 913      -0.229000
     11 C9           3.3610     1.2220     0.4700 cd         1 913       0.243900
     12 C11         -0.6610     0.4570    -0.2640 ca         1 913      -0.100000
     13 N8           2.0500     1.2150     0.6260 nc         1 913      -0.520800
     14 H11C        -3.8870     0.4730    -1.2320 h1         1 913       0.038200
     15 H12C        -2.7190     1.8130    -1.2550 h1         1 913       0.038200
     16 H11N        -3.0490     2.1040     1.0800 hn         1 913       0.399000
     17 H12N        -4.4370     2.2790     0.2720 hn         1 913       0.399000
     18 H3          -3.3340    -1.6570     0.0360 ha         1 913       0.134000
     19 H11         -0.4280     1.4900    -0.5140 ha         1 913       0.138000
     20 H7           2.6700    -1.7370    -0.8720 h4         1 913       0.155000
     21 H4          -1.5080    -3.2420     0.6170 ha         1 913       0.117000
     22 H5           0.8520    -2.4770     0.6440 ha         1 913       0.119000
     23 H8           4.8820    -0.1720    -0.3810 ha         1 913       0.146000
     24 H9           3.9330     2.0750     0.8140 h4         1 913       0.038100
@<TRIPOS>BOND
     1     1     2 1   
     2     1     3 1   
     3     1    14 1   
     4     1    15 1   
     5     2    16 1   
     6     2    17 1   
     7     3     5 ar  
     8     3    12 ar  
     9     4     8 1   
    10     4     9 1   
    11     4    13 1   
    12     5     6 ar  
    13     5    18 1   
    14     6     7 ar  
    15     6    21 1   
    16     7     8 ar  
    17     7    22 1   
    18     8    12 ar  
    19     9    10 2   
    20     9    20 1   
    21    10    11 1   
    22    10    23 1   
    23    11    13 2   
    24    11    24 1   
    25    12    19 1   
@<TRIPOS>SUBSTRUCTURE
     1 913         1 TEMP              0 ****  ****    0 ROOT
