@<TRIPOS>MOLECULE
913
   24    25     1     0     0
SMALL
abcg2


@<TRIPOS>ATOM
      1 C1          -2.9750     1.2100    -0.5250 c3         1 913       0.195100
      2 N1          -4.1030     1.1450     0.3880 n8         1 913      -1.000200
      3 C2          -1.9270     0.1800    -0.1880 ca         1 913      -0.074300
      4 N2           1.7570    -0.0640     0.0040 na         1 913       0.227000
      5 C3          -2.2870    -1.1260     0.1400 ca         1 913      -0.088000
      6 C4          -1.3090    -2.0700     0.4120 ca         1 913      -0.102000
      7 C5           0.0360    -1.7320     0.3780 ca         1 913      -0.129000
      8 C6           0.3970    -0.4310     0.0500 ca         1 913       0.015800
      9 C7           2.8220    -0.8710    -0.2120 cc         1 913      -0.161000
     10 C8           3.9370    -0.0740    -0.1710 cd         1 913      -0.229000
     11 C9           3.4330     1.2160     0.0780 cd         1 913       0.243900
     12 C11         -0.5810     0.5190    -0.2310 ca         1 913      -0.100000
     13 N8           2.1200     1.2090     0.1800 nc         1 913      -0.520800
     14 H11C        -3.3490     1.0050    -1.5330 h1         1 913       0.038200
     15 H12C        -2.4960     2.1960    -0.5770 h1         1 913       0.038200
     16 H11N        -3.8220     1.4920     1.2960 hn         1 913       0.399000
     17 H12N        -4.8330     1.7650     0.0630 hn         1 913       0.399000
     18 H3          -3.3330    -1.3980     0.1890 ha         1 913       0.134000
     19 H11         -0.2870     1.5290    -0.4850 ha         1 913       0.138000
     20 H7           2.7160    -1.9260    -0.3970 h4         1 913       0.155000
     21 H4          -1.5920    -3.0820     0.6710 ha         1 913       0.117000
     22 H5           0.7840    -2.4740     0.6250 ha         1 913       0.119000
     23 H8           4.9620    -0.3750    -0.3060 ha         1 913       0.146000
     24 H9           3.9800     2.1390     0.1890 h4         1 913       0.038100
@<TRIPOS>BOND
     1     1     2 1   
     2     1     3 1   
     3     1    14 1   
     4     1    15 1   
     5     2    16 1   
     6     2    17 1   
     7     3     5 ar  
     8     3    12 ar  
     9     4     8 1   
    10     4     9 1   
    11     4    13 1   
    12     5     6 ar  
    13     5    18 1   
    14     6     7 ar  
    15     6    21 1   
    16     7     8 ar  
    17     7    22 1   
    18     8    12 ar  
    19     9    10 2   
    20     9    20 1   
    21    10    11 1   
    22    10    23 1   
    23    11    13 2   
    24    11    24 1   
    25    12    19 1   
@<TRIPOS>SUBSTRUCTURE
     1 913         1 TEMP              0 ****  ****    0 ROOT
