@<TRIPOS>MOLECULE
915
   42    43     1     0     0
SMALL
No Charge or Current Charge


@<TRIPOS>ATOM
      1 C1          -1.4980    -1.2570    -0.4450 ca         1 915      -0.294500
      2 C2          -2.3530    -0.1410    -0.5520 ca         1 915       0.017000
      3 C3          -3.3580     0.0770     0.4110 ca         1 915      -0.134300
      4 C4          -3.4980    -0.8360     1.4750 ca         1 915       0.222000
      5 C5          -2.6500    -1.9470     1.5810 ca         1 915      -0.176000
      6 C6          -1.6460    -2.1630     0.6240 ca         1 915       0.003000
      7 F10         -4.4560    -0.6470     2.4110 f          1 915      -0.169000
      8 C11         -4.2770     1.2890     0.3000 c3         1 915      -0.043800
      9 S15         -0.2030    -1.4900    -1.6680 sy         1 915       1.140600
     10 N16          0.7840    -0.1800    -1.3540 n7         1 915      -0.858300
     11 C17          1.1590     0.1510     0.0600 c3         1 915       0.134500
     12 C18          2.0650    -0.9350     0.7450 c          1 915       0.584100
     13 N19          1.5870    -1.4340     1.9560 ns         1 915      -0.377400
     14 O20          2.4330    -2.2420     2.8110 oh         1 915      -0.416100
     15 O21          3.1020    -1.3510     0.2370 o          1 915      -0.569100
     16 O22          0.5820    -2.6850    -1.3630 o          1 915      -0.536500
     17 O23         -0.7620    -1.2290    -2.9960 o          1 915      -0.536500
     18 C27          1.7640     1.5940     0.1570 c6         1 915      -0.045700
     19 C29          3.0360     1.8230    -0.7150 c6         1 915      -0.110900
     20 C30          3.5380     3.2800    -0.5760 c6         1 915       0.154600
     21 O31          2.4790     4.2010    -0.9150 os         1 915      -0.445000
     22 C32          1.3220     4.1030    -0.0570 c6         1 915       0.154600
     23 C33          0.7040     2.6890    -0.1650 c6         1 915      -0.110900
     24 H2          -2.2280     0.5610    -1.3750 ha         1 915       0.138000
     25 H5          -2.7710    -2.6420     2.4090 ha         1 915       0.139000
     26 H6          -0.9910    -3.0290     0.7170 ha         1 915       0.143000
     27 H111        -5.3250     0.9810     0.2140 hc         1 915       0.052700
     28 H112        -4.1880     1.9300     1.1860 hc         1 915       0.052700
     29 H113        -4.0400     1.9040    -0.5760 hc         1 915       0.052700
     30 H16          1.6220    -0.4440    -1.8710 hn         1 915       0.507000
     31 H17          0.2480     0.1980     0.6700 h1         1 915       0.068700
     32 H19          0.7980    -0.9770     2.4120 hn         1 915       0.340500
     33 H20          1.8730    -3.0280     3.0190 ho         1 915       0.451000
     34 H27          2.0530     1.7200     1.2110 hc         1 915       0.047700
     35 H291         3.8400     1.1370    -0.4190 hc         1 915       0.059450
     36 H292         2.8210     1.6210    -1.7730 hc         1 915       0.059450
     37 H301         3.8730     3.4740     0.4530 h1         1 915       0.045450
     38 H302         4.3900     3.4500    -1.2510 h1         1 915       0.045450
     39 H321         1.6200     4.3130     0.9810 h1         1 915       0.045450
     40 H322         0.5850     4.8600    -0.3620 h1         1 915       0.045450
     41 H331         0.3050     2.5470    -1.1790 hc         1 915       0.059450
     42 H332        -0.1500     2.6080     0.5210 hc         1 915       0.059450
@<TRIPOS>BOND
     1     1     2 ar  
     2     1     6 ar  
     3     1     9 1   
     4     2     3 ar  
     5     2    24 1   
     6     3     4 ar  
     7     3     8 1   
     8     4     5 ar  
     9     4     7 1   
    10     5     6 ar  
    11     5    25 1   
    12     6    26 1   
    13     8    27 1   
    14     8    28 1   
    15     8    29 1   
    16     9    10 1   
    17     9    16 2   
    18     9    17 2   
    19    10    11 1   
    20    10    30 1   
    21    11    12 1   
    22    11    18 1   
    23    11    31 1   
    24    12    13 1   
    25    12    15 2   
    26    13    14 1   
    27    13    32 1   
    28    14    33 1   
    29    18    19 1   
    30    18    23 1   
    31    18    34 1   
    32    19    20 1   
    33    19    35 1   
    34    19    36 1   
    35    20    21 1   
    36    20    37 1   
    37    20    38 1   
    38    21    22 1   
    39    22    23 1   
    40    22    39 1   
    41    22    40 1   
    42    23    41 1   
    43    23    42 1   
@<TRIPOS>SUBSTRUCTURE
     1 915         1 TEMP              0 ****  ****    0 ROOT
