@<TRIPOS>MOLECULE
915
   42    43     1     0     0
SMALL
bcc


@<TRIPOS>ATOM
      1 C1          -1.7060    -1.0680    -0.2190 ca         1 915      -0.294500
      2 C2          -2.3780    -0.0120    -0.8240 ca         1 915      -0.001000
      3 C3          -3.4840     0.5620    -0.2170 ca         1 915      -0.134300
      4 C4          -3.8730     0.0230     1.0060 ca         1 915       0.186900
      5 C5          -3.2230    -1.0260     1.6210 ca         1 915      -0.194000
      6 C6          -2.1170    -1.5860     0.9980 ca         1 915      -0.015000
      7 F10         -4.9370     0.5580     1.6150 f          1 915      -0.133900
      8 C11         -4.2340     1.6990    -0.8390 c3         1 915      -0.043800
      9 S15         -0.3050    -1.7510    -1.0490 sy         1 915       1.282200
     10 N16          0.7550    -0.4800    -0.9870 n7         1 915      -0.803100
     11 C17          1.4480    -0.2600     0.2690 c3         1 915       0.134500
     12 C18          2.6900    -1.1480     0.3530 c          1 915       0.651100
     13 N19          3.0210    -1.4820     1.6070 ns         1 915      -0.444400
     14 O20          4.2090    -2.0880     1.8700 oh         1 915      -0.377100
     15 O21          3.3120    -1.4860    -0.6360 o          1 915      -0.569100
     16 O22          0.1670    -2.8870    -0.2680 o          1 915      -0.607300
     17 O23         -0.6090    -1.9410    -2.4580 o          1 915      -0.607300
     18 C27          1.8130     1.2240     0.4420 c6         1 915      -0.045700
     19 C29          2.6740     1.7940    -0.6830 c6         1 915      -0.110900
     20 C30          2.9260     3.2750    -0.4370 c6         1 915       0.131400
     21 O31          1.7270     4.0060    -0.3130 os         1 915      -0.398600
     22 C32          0.9360     3.5450     0.7600 c6         1 915       0.131400
     23 C33          0.5580     2.0800     0.6030 c6         1 915      -0.110900
     24 H2          -2.0430     0.3810    -1.7760 ha         1 915       0.156000
     25 H5          -3.5700    -1.4030     2.5740 ha         1 915       0.157000
     26 H6          -1.5930    -2.4070     1.4670 ha         1 915       0.161000
     27 H111        -5.2620     1.4190    -1.0690 hc         1 915       0.052700
     28 H112        -4.2710     2.5650    -0.1770 hc         1 915       0.052700
     29 H113        -3.7570     2.0080    -1.7670 hc         1 915       0.052700
     30 H16          1.3740    -0.5020    -1.7940 hn         1 915       0.451800
     31 H17          0.7640    -0.5040     1.0880 h1         1 915       0.068700
     32 H19          2.5220    -1.1450     2.4180 hn         1 915       0.340500
     33 H20          4.0320    -3.0390     1.8780 ho         1 915       0.412000
     34 H27          2.3860     1.2900     1.3750 hc         1 915       0.047700
     35 H291         3.6360     1.2820    -0.7520 hc         1 915       0.059450
     36 H292         2.1720     1.6760    -1.6480 hc         1 915       0.059450
     37 H301         3.5420     3.3940     0.4670 h1         1 915       0.045450
     38 H302         3.4810     3.7110    -1.2700 h1         1 915       0.045450
     39 H321         1.4670     3.6870     1.7140 h1         1 915       0.045450
     40 H322         0.0420     4.1700     0.7890 h1         1 915       0.045450
     41 H331        -0.0950     1.9570    -0.2650 hc         1 915       0.059450
     42 H332        -0.0100     1.7640     1.4820 hc         1 915       0.059450
@<TRIPOS>BOND
     1     1     2 ar  
     2     1     6 ar  
     3     1     9 1   
     4     2     3 ar  
     5     2    24 1   
     6     3     4 ar  
     7     3     8 1   
     8     4     5 ar  
     9     4     7 1   
    10     5     6 ar  
    11     5    25 1   
    12     6    26 1   
    13     8    27 1   
    14     8    28 1   
    15     8    29 1   
    16     9    10 1   
    17     9    16 2   
    18     9    17 2   
    19    10    11 1   
    20    10    30 1   
    21    11    12 1   
    22    11    18 1   
    23    11    31 1   
    24    12    13 1   
    25    12    15 2   
    26    13    14 1   
    27    13    32 1   
    28    14    33 1   
    29    18    19 1   
    30    18    23 1   
    31    18    34 1   
    32    19    20 1   
    33    19    35 1   
    34    19    36 1   
    35    20    21 1   
    36    20    37 1   
    37    20    38 1   
    38    21    22 1   
    39    22    23 1   
    40    22    39 1   
    41    22    40 1   
    42    23    41 1   
    43    23    42 1   
@<TRIPOS>SUBSTRUCTURE
     1 915         1 TEMP              0 ****  ****    0 ROOT
