@<TRIPOS>MOLECULE
916
   70    72     1     0     0
SMALL
No Charge or Current Charge


@<TRIPOS>ATOM
      1 O21         -3.2620    -2.3520    -0.9420 o          1 916      -0.601100
      2 C6          -3.6710    -1.4070    -1.6000 c          1 916       0.600100
      3 C5          -4.0580    -1.5420    -3.0660 c3         1 916      -0.183100
      4 N7          -3.8190    -0.1370    -1.0850 ns         1 916      -0.507900
      5 C8          -3.5780     0.2650     0.3130 c3         1 916       0.098700
      6 C13         -4.6080    -0.3980     1.2700 c3         1 916      -0.048100
      7 C22         -6.0510    -0.2500     0.7930 ca         1 916      -0.079300
      8 C27         -6.7460    -1.3570     0.2670 ca         1 916      -0.110500
      9 C26         -8.0710    -1.2150    -0.1800 ca         1 916      -0.111500
     10 C25         -8.7090     0.0340    -0.1040 ca         1 916      -0.112000
     11 C24         -8.0210     1.1410     0.4210 ca         1 916      -0.111500
     12 C23         -6.6960     1.0000     0.8680 ca         1 916      -0.110500
     13 C9          -2.0960     0.0570     0.7690 c3         1 916       0.153300
     14 O1          -1.8990     0.6110     2.0920 oh         1 916      -0.647000
     15 C10         -1.0650     0.6880    -0.2160 c3         1 916       0.135800
     16 N11          0.3250     0.4750     0.2480 n7         1 916      -0.848400
     17 C12          1.4190     1.0850    -0.5280 c6         1 916       0.257800
     18 C15          1.3710     2.6340    -0.4600 c6         1 916      -0.139400
     19 C2           2.7100     3.2740    -0.9270 c6         1 916       0.189000
     20 C4           2.7120     4.8090    -0.6980 c3         1 916      -0.099600
     21 C3           3.0130     2.9960    -2.4300 c3         1 916      -0.099600
     22 C17          2.7400     0.6180     0.0340 cc         1 916      -0.214300
     23 C18          3.0020    -0.7220     0.4320 cc         1 916      -0.069000
     24 C19          4.2800    -0.9280     0.9000 cd         1 916      -0.215300
     25 S20          5.2240     0.5830     0.8990 ss         1 916       0.180000
     26 C16          3.8320     1.4250     0.2070 cd         1 916       0.025100
     27 O14          3.8200     2.7450    -0.1680 os         1 916      -0.315100
     28 C28          4.8720    -2.2170     1.4220 c3         1 916       0.006900
     29 C29          5.5310    -3.1330     0.3410 c3         1 916      -0.043000
     30 C32          4.4830    -3.5700    -0.7170 c3         1 916      -0.084767
     31 C31          6.6980    -2.3950    -0.3680 c3         1 916      -0.084767
     32 C30          6.0930    -4.4000     1.0390 c3         1 916      -0.084767
     33 H1          -3.9220    -2.5600    -3.4460 hc         1 916       0.060367
     34 H2          -5.0900    -1.1970    -3.1930 hc         1 916       0.060367
     35 H3          -3.4930    -0.8100    -3.6540 hc         1 916       0.060367
     36 H4          -4.1810     0.5610    -1.7230 hn         1 916       0.312500
     37 H5          -3.7700     1.3460     0.3430 h1         1 916       0.035700
     38 H6          -4.3560    -1.4580     1.3920 hc         1 916       0.073200
     39 H7          -4.5110     0.0450     2.2680 hc         1 916       0.073200
     40 H8          -6.2600    -2.3280     0.2000 ha         1 916       0.114000
     41 H9          -8.6020    -2.0730    -0.5870 ha         1 916       0.112000
     42 H10         -9.7350     0.1440    -0.4500 ha         1 916       0.112000
     43 H11         -8.5140     2.1090     0.4800 ha         1 916       0.112000
     44 H12         -6.1700     1.8620     1.2710 ha         1 916       0.114000
     45 H13         -1.8990    -1.0240     0.7900 h1         1 916       0.117700
     46 H14         -2.0160     1.5830     2.0190 ho         1 916       0.429000
     47 H15         -1.1920     0.2430    -1.2120 h1         1 916       0.029700
     48 H16         -1.2850     1.7600    -0.3050 h1         1 916       0.029700
     49 H17          0.3950     0.8030     1.2170 hn         1 916       0.423000
     50 H19          1.3390     0.7660    -1.5790 h1         1 916       0.066700
     51 H20          0.5420     3.0140    -1.0710 hc         1 916       0.051200
     52 H21          1.1690     2.9490     0.5730 hc         1 916       0.051200
     53 H22          2.5450     5.0520     0.3580 hc         1 916       0.047533
     54 H23          3.6690     5.2570    -0.9940 hc         1 916       0.047533
     55 H24          1.9220     5.2980    -1.2800 hc         1 916       0.047533
     56 H25          2.2100     3.3760    -3.0720 hc         1 916       0.047533
     57 H26          3.9440     3.4810    -2.7440 hc         1 916       0.047533
     58 H27          3.1210     1.9250    -2.6350 hc         1 916       0.047533
     59 H28          2.2510    -1.5050     0.3620 ha         1 916       0.145000
     60 H29          5.6190    -1.9820     2.1910 hc         1 916       0.049700
     61 H30          4.0880    -2.7850     1.9390 hc         1 916       0.049700
     62 H31          4.9220    -4.2730    -1.4350 hc         1 916       0.034256
     63 H32          3.6270    -4.0640    -0.2410 hc         1 916       0.034256
     64 H33          4.1060    -2.7100    -1.2830 hc         1 916       0.034256
     65 H34          7.4350    -2.0350     0.3600 hc         1 916       0.034256
     66 H35          7.2140    -3.0620    -1.0690 hc         1 916       0.034256
     67 H36          6.3340    -1.5330    -0.9400 hc         1 916       0.034256
     68 H37          6.8480    -4.1330     1.7890 hc         1 916       0.034256
     69 H38          5.2950    -4.9560     1.5460 hc         1 916       0.034256
     70 H39          6.5640    -5.0740     0.3130 hc         1 916       0.034256
@<TRIPOS>BOND
     1     1     2 2   
     2     2     3 1   
     3     2     4 1   
     4     3    33 1   
     5     3    34 1   
     6     3    35 1   
     7     4     5 1   
     8     4    36 1   
     9     5     6 1   
    10     5    13 1   
    11     5    37 1   
    12     6     7 1   
    13     6    38 1   
    14     6    39 1   
    15     7     8 ar  
    16     7    12 ar  
    17     8     9 ar  
    18     8    40 1   
    19     9    10 ar  
    20     9    41 1   
    21    10    11 ar  
    22    10    42 1   
    23    11    12 ar  
    24    11    43 1   
    25    12    44 1   
    26    13    14 1   
    27    13    15 1   
    28    13    45 1   
    29    14    46 1   
    30    15    16 1   
    31    15    47 1   
    32    15    48 1   
    33    16    17 1   
    34    16    49 1   
    35    17    18 1   
    36    17    22 1   
    37    17    50 1   
    38    18    19 1   
    39    18    51 1   
    40    18    52 1   
    41    19    20 1   
    42    19    21 1   
    43    19    27 1   
    44    20    53 1   
    45    20    54 1   
    46    20    55 1   
    47    21    56 1   
    48    21    57 1   
    49    21    58 1   
    50    22    23 1   
    51    22    26 2   
    52    23    24 2   
    53    23    59 1   
    54    24    25 1   
    55    24    28 1   
    56    25    26 1   
    57    26    27 1   
    58    28    29 1   
    59    28    60 1   
    60    28    61 1   
    61    29    30 1   
    62    29    31 1   
    63    29    32 1   
    64    30    62 1   
    65    30    63 1   
    66    30    64 1   
    67    31    65 1   
    68    31    66 1   
    69    31    67 1   
    70    32    68 1   
    71    32    69 1   
    72    32    70 1   
@<TRIPOS>SUBSTRUCTURE
     1 916         1 TEMP              0 ****  ****    0 ROOT
