@<TRIPOS>MOLECULE
916
   70    72     1     0     0
SMALL
bcc


@<TRIPOS>ATOM
      1 O21         -3.4410    -2.0760    -1.4930 o          1 916      -0.601100
      2 C6          -3.7950    -0.9740    -1.8900 c          1 916       0.667100
      3 C5          -4.2500    -0.7390    -3.3100 c3         1 916      -0.183100
      4 N7          -3.8350     0.1160    -1.1020 ns         1 916      -0.574900
      5 C8          -3.5990     0.1310     0.3300 c3         1 916       0.098700
      6 C13         -4.6360    -0.7000     1.1050 c3         1 916      -0.048100
      7 C22         -6.0410    -0.2980     0.7590 ca         1 916      -0.079300
      8 C27         -6.7870    -1.0150    -0.1730 ca         1 916      -0.128500
      9 C26         -8.0710    -0.6140    -0.5220 ca         1 916      -0.129500
     10 C25         -8.6300     0.5160     0.0600 ca         1 916      -0.130000
     11 C24         -7.8970     1.2390     0.9930 ca         1 916      -0.129500
     12 C23         -6.6150     0.8330     1.3370 ca         1 916      -0.128500
     13 C9          -2.1540    -0.2450     0.7070 c3         1 916       0.130100
     14 O1          -1.9620    -0.0720     2.0970 oh         1 916      -0.584800
     15 C10         -1.1350     0.5610    -0.0920 c3         1 916       0.135800
     16 N11          0.2140     0.2190     0.3110 n7         1 916      -0.793200
     17 C12          1.2520     0.8190    -0.5100 c6         1 916       0.257800
     18 C15          1.2190     2.3560    -0.5640 c6         1 916      -0.139400
     19 C2           2.4990     2.9710    -1.1310 c6         1 916       0.165800
     20 C4           2.4470     4.4860    -1.0480 c3         1 916      -0.099600
     21 C3           2.7640     2.5200    -2.5630 c3         1 916      -0.099600
     22 C17          2.6000     0.4060    -0.0040 cc         1 916      -0.214300
     23 C18          2.9960    -0.8760     0.4870 cc         1 916      -0.087000
     24 C19          4.2880    -0.9420     0.9030 cd         1 916      -0.070400
     25 S20          5.0700     0.6010     0.6970 ss         1 916      -0.109800
     26 C16          3.6250     1.2980     0.0600 cd         1 916       0.170000
     27 O14          3.6290     2.5810    -0.3070 os         1 916      -0.291900
     28 C28          5.0330    -2.0920     1.5000 c3         1 916       0.006900
     29 C29          5.8400    -2.9790     0.5240 c3         1 916      -0.043000
     30 C32          4.8970    -3.6900    -0.4440 c3         1 916      -0.084767
     31 C31          6.8570    -2.1560    -0.2650 c3         1 916      -0.084767
     32 C30          6.5840    -4.0200     1.3640 c3         1 916      -0.084767
     33 H1          -3.8650    -1.5180    -3.9630 hc         1 916       0.060367
     34 H2          -5.3410    -0.7710    -3.3520 hc         1 916       0.060367
     35 H3          -3.9370     0.2320    -3.6920 hc         1 916       0.060367
     36 H4          -4.1730     0.9710    -1.5090 hn         1 916       0.312500
     37 H5          -3.7360     1.1790     0.6170 h1         1 916       0.035700
     38 H6          -4.4860    -1.7610     0.9020 hc         1 916       0.073200
     39 H7          -4.4640    -0.5510     2.1720 hc         1 916       0.073200
     40 H8          -6.3620    -1.9030    -0.6270 ha         1 916       0.132000
     41 H9          -8.6350    -1.1860    -1.2470 ha         1 916       0.130000
     42 H10         -9.6310     0.8280    -0.2090 ha         1 916       0.130000
     43 H11         -8.3270     2.1180     1.4570 ha         1 916       0.130000
     44 H12         -6.0520     1.4010     2.0700 ha         1 916       0.132000
     45 H13         -1.9910    -1.3070     0.5190 h1         1 916       0.117700
     46 H14         -2.0970     0.8580     2.3130 ho         1 916       0.390000
     47 H15         -1.2420     0.3320    -1.1540 h1         1 916       0.029700
     48 H16         -1.3680     1.6330     0.0170 h1         1 916       0.029700
     49 H17          0.3590     0.4910     1.2760 hn         1 916       0.367800
     50 H19          1.1070     0.4310    -1.5270 h1         1 916       0.066700
     51 H20          0.3800     2.7030    -1.1700 hc         1 916       0.051200
     52 H21          1.0570     2.7400     0.4490 hc         1 916       0.051200
     53 H22          2.2620     4.8240    -0.0280 hc         1 916       0.047533
     54 H23          3.3800     4.9330    -1.3960 hc         1 916       0.047533
     55 H24          1.6420     4.8620    -1.6790 hc         1 916       0.047533
     56 H25          1.9160     2.7820    -3.1980 hc         1 916       0.047533
     57 H26          3.6490     3.0140    -2.9650 hc         1 916       0.047533
     58 H27          2.9140     1.4420    -2.6420 hc         1 916       0.047533
     59 H28          2.3200    -1.7200     0.5430 ha         1 916       0.163000
     60 H29          5.7140    -1.7210     2.2730 hc         1 916       0.049700
     61 H30          4.3100    -2.7280     2.0190 hc         1 916       0.049700
     62 H31          5.4540    -4.3390    -1.1230 hc         1 916       0.034256
     63 H32          4.1750    -4.3110     0.0910 hc         1 916       0.034256
     64 H33          4.3360    -2.9780    -1.0520 hc         1 916       0.034256
     65 H34          7.5170    -1.5910     0.3990 hc         1 916       0.034256
     66 H35          7.4850    -2.8110    -0.8730 hc         1 916       0.034256
     67 H36          6.3730    -1.4480    -0.9390 hc         1 916       0.034256
     68 H37          7.2790    -3.5430     2.0590 hc         1 916       0.034256
     69 H38          5.8910    -4.6270     1.9500 hc         1 916       0.034256
     70 H39          7.1600    -4.6950     0.7280 hc         1 916       0.034256
@<TRIPOS>BOND
     1     1     2 2   
     2     2     3 1   
     3     2     4 1   
     4     3    33 1   
     5     3    34 1   
     6     3    35 1   
     7     4     5 1   
     8     4    36 1   
     9     5     6 1   
    10     5    13 1   
    11     5    37 1   
    12     6     7 1   
    13     6    38 1   
    14     6    39 1   
    15     7     8 ar  
    16     7    12 ar  
    17     8     9 ar  
    18     8    40 1   
    19     9    10 ar  
    20     9    41 1   
    21    10    11 ar  
    22    10    42 1   
    23    11    12 ar  
    24    11    43 1   
    25    12    44 1   
    26    13    14 1   
    27    13    15 1   
    28    13    45 1   
    29    14    46 1   
    30    15    16 1   
    31    15    47 1   
    32    15    48 1   
    33    16    17 1   
    34    16    49 1   
    35    17    18 1   
    36    17    22 1   
    37    17    50 1   
    38    18    19 1   
    39    18    51 1   
    40    18    52 1   
    41    19    20 1   
    42    19    21 1   
    43    19    27 1   
    44    20    53 1   
    45    20    54 1   
    46    20    55 1   
    47    21    56 1   
    48    21    57 1   
    49    21    58 1   
    50    22    23 1   
    51    22    26 2   
    52    23    24 2   
    53    23    59 1   
    54    24    25 1   
    55    24    28 1   
    56    25    26 1   
    57    26    27 1   
    58    28    29 1   
    59    28    60 1   
    60    28    61 1   
    61    29    30 1   
    62    29    31 1   
    63    29    32 1   
    64    30    62 1   
    65    30    63 1   
    66    30    64 1   
    67    31    65 1   
    68    31    66 1   
    69    31    67 1   
    70    32    68 1   
    71    32    69 1   
    72    32    70 1   
@<TRIPOS>SUBSTRUCTURE
     1 916         1 TEMP              0 ****  ****    0 ROOT
