@<TRIPOS>MOLECULE
917
   37    39     1     0     0
SMALL
No Charge or Current Charge


@<TRIPOS>ATOM
      1 C13         -1.0650     0.9720     0.8950 ca         1 917      -0.140500
      2 C15         -3.0780    -0.1080     0.0230 ca         1 917      -0.028000
      3 C17         -0.8760    -1.1260    -0.2880 ca         1 917      -0.140500
      4 C21         -6.9300     0.0720    -0.1950 cc         1 917       0.411300
      5 C01          7.7500    -0.3490    -0.2880 c3         1 917      -0.178100
      6 C02          6.5100     0.5090    -0.0750 c          1 917       0.602100
      7 C05          4.0530     0.6900    -0.6080 c3         1 917       0.090000
      8 C06          3.3840     0.5880     0.7890 c5         1 917       0.128300
      9 C07          1.9450     1.1750     0.8200 c5         1 917       0.066000
     10 C09          1.9360    -1.1970     0.9140 c          1 917       0.699100
     11 C12         -0.2460    -0.0340     0.3430 ca         1 917       0.000000
     12 C14         -2.4600     0.9470     0.7200 ca         1 917      -0.072000
     13 C16         -2.2700    -1.1530    -0.4680 ca         1 917      -0.072000
     14 C18         -4.5350    -0.1220    -0.1500 cc         1 917      -0.171000
     15 C19         -5.1370    -0.7800    -1.2020 cd         1 917       0.273900
     16 N04          5.3750     0.0520    -0.7010 ns         1 917      -0.501900
     17 N08          1.1590    -0.0570     0.6690 n          1 917      -0.256400
     18 N20         -6.5220    -0.6700    -1.2220 nd         1 917      -0.628000
     19 O03          6.5230     1.5290     0.5980 o          1 917      -0.610100
     20 O11          3.2250    -0.8110     1.1350 os         1 917      -0.411100
     21 S22         -5.6880     0.6990     0.8610 ss         1 917      -0.033400
     22 H1          -0.6270     1.7890     1.4640 ha         1 917       0.129500
     23 H2          -0.2890    -1.9530    -0.6790 ha         1 917       0.129500
     24 H3          -7.9650     0.3080     0.0170 h5         1 917       0.053100
     25 H4           7.9230    -0.4660    -1.3630 hc         1 917       0.063033
     26 H5           8.6320     0.0500     0.2240 hc         1 917       0.063033
     27 H6           7.5300    -1.3760     0.0260 hc         1 917       0.063033
     28 H7           3.3920     0.2290    -1.3550 h1         1 917       0.066700
     29 H8           4.1580     1.7500    -0.8740 h1         1 917       0.066700
     30 H9           4.0330     1.0780     1.5280 h1         1 917       0.107700
     31 H10          1.7340     1.6630     1.7800 h1         1 917       0.068200
     32 H11          1.7590     1.8900     0.0080 h1         1 917       0.068200
     33 H12         -3.0570     1.7550     1.1350 ha         1 917       0.120000
     34 H13         -2.7150    -2.0050    -0.9760 ha         1 917       0.120000
     35 H14         -4.6380    -1.3420    -1.9810 h4         1 917       0.044100
     36 H15          5.4630    -0.8080    -1.2320 hn         1 917       0.324500
     37 O10          1.5500    -2.3550     0.9660 o          1 917      -0.514000
@<TRIPOS>BOND
     1     1    11 ar  
     2     1    12 ar  
     3     1    22 1   
     4     2    12 ar  
     5     2    13 ar  
     6     2    14 1   
     7     3    11 ar  
     8     3    13 ar  
     9     3    23 1   
    10     4    18 2   
    11     4    21 1   
    12     4    24 1   
    13     5     6 1   
    14     5    25 1   
    15     5    26 1   
    16     5    27 1   
    17     6    16 1   
    18     6    19 2   
    19     7     8 1   
    20     7    16 1   
    21     7    28 1   
    22     7    29 1   
    23     8     9 1   
    24     8    20 1   
    25     8    30 1   
    26     9    17 1   
    27     9    31 1   
    28     9    32 1   
    29    10    17 1   
    30    10    20 1   
    31    10    37 2   
    32    11    17 1   
    33    12    33 1   
    34    13    34 1   
    35    14    15 2   
    36    14    21 1   
    37    15    18 1   
    38    15    35 1   
    39    16    36 1   
@<TRIPOS>SUBSTRUCTURE
     1 917         1 TEMP              0 ****  ****    0 ROOT
