@<TRIPOS>MOLECULE
917
   37    39     1     0     0
SMALL
bcc


@<TRIPOS>ATOM
      1 C13         -0.9590     0.9450     0.6900 ca         1 917      -0.158500
      2 C15         -3.0210    -0.1190     0.0020 ca         1 917      -0.028000
      3 C17         -0.9030    -1.2880    -0.1880 ca         1 917      -0.158500
      4 C21         -6.8650     0.2610    -0.1110 cc         1 917       0.411300
      5 C01          7.6910    -0.2310    -0.2680 c3         1 917      -0.178100
      6 C02          6.4490     0.6040    -0.0890 c          1 917       0.669100
      7 C05          4.0490     0.7510    -0.5510 c3         1 917       0.090000
      8 C06          3.3440     0.5020     0.7750 c5         1 917       0.105100
      9 C07          1.9110     1.0290     0.7840 c5         1 917       0.066000
     10 C09          1.9350    -1.2890     0.7630 c          1 917       0.841600
     11 C12         -0.2250    -0.1910     0.3510 ca         1 917       0.092600
     12 C14         -2.3320     0.9770     0.5160 ca         1 917      -0.090000
     13 C16         -2.2760    -1.2480    -0.3440 ca         1 917      -0.090000
     14 C18         -4.4670    -0.1020    -0.1870 cc         1 917      -0.091400
     15 C19         -5.2250    -0.8300    -1.0620 cd         1 917       0.339200
     16 N04          5.3290     0.1010    -0.6420 ns         1 917      -0.568900
     17 N08          1.1620    -0.1870     0.5300 n          1 917      -0.416000
     18 N20         -6.5690    -0.6190    -1.0120 nd         1 917      -0.628000
     19 O03          6.4660     1.6780     0.4970 o          1 917      -0.610100
     20 O11          3.1950    -0.9060     0.9880 os         1 917      -0.387900
     21 S22         -5.5210     0.8970     0.7460 ss         1 917      -0.178300
     22 H1          -0.4740     1.8190     1.1010 ha         1 917       0.147500
     23 H2          -0.3740    -2.1780    -0.4880 ha         1 917       0.147500
     24 H3          -7.8700     0.5940     0.1090 h5         1 917       0.053100
     25 H4           8.3590     0.2650    -0.9730 hc         1 917       0.063033
     26 H5           8.2170    -0.3080     0.6810 hc         1 917       0.063033
     27 H6           7.4890    -1.2340    -0.6390 hc         1 917       0.063033
     28 H7           3.4280     0.3950    -1.3760 h1         1 917       0.066700
     29 H8           4.1640     1.8280    -0.6790 h1         1 917       0.066700
     30 H9           3.9300     0.9040     1.6000 h1         1 917       0.107700
     31 H10          1.6450     1.4730     1.7460 h1         1 917       0.068200
     32 H11          1.7400     1.7710     0.0030 h1         1 917       0.068200
     33 H12         -2.8600     1.8840     0.7840 ha         1 917       0.138000
     34 H13         -2.7720    -2.1240    -0.7400 ha         1 917       0.138000
     35 H14         -4.8220    -1.5300    -1.7810 h4         1 917       0.044100
     36 H15          5.3620    -0.8140    -1.0600 hn         1 917       0.324500
     37 O10          1.6040    -2.4460     0.7870 o          1 917      -0.589500
@<TRIPOS>BOND
     1     1    11 ar  
     2     1    12 ar  
     3     1    22 1   
     4     2    12 ar  
     5     2    13 ar  
     6     2    14 1   
     7     3    11 ar  
     8     3    13 ar  
     9     3    23 1   
    10     4    18 2   
    11     4    21 1   
    12     4    24 1   
    13     5     6 1   
    14     5    25 1   
    15     5    26 1   
    16     5    27 1   
    17     6    16 1   
    18     6    19 2   
    19     7     8 1   
    20     7    16 1   
    21     7    28 1   
    22     7    29 1   
    23     8     9 1   
    24     8    20 1   
    25     8    30 1   
    26     9    17 1   
    27     9    31 1   
    28     9    32 1   
    29    10    17 1   
    30    10    20 1   
    31    10    37 2   
    32    11    17 1   
    33    12    33 1   
    34    13    34 1   
    35    14    15 2   
    36    14    21 1   
    37    15    18 1   
    38    15    35 1   
    39    16    36 1   
@<TRIPOS>SUBSTRUCTURE
     1 917         1 TEMP              0 ****  ****    0 ROOT
