@<TRIPOS>MOLECULE
918
   49    52     1     0     0
SMALL
abcg2


@<TRIPOS>ATOM
      1 C4          -0.4320     0.6930    -0.1720 cp         1 918       0.243500
      2 C5           0.4780     1.7230    -0.0730 ca         1 918      -0.335000
      3 C6           1.8360     1.3440     0.0160 ca         1 918       0.435900
      4 N1           2.1860     0.0580     0.0210 nb         1 918      -0.333000
      5 N3          -0.0850    -0.5930    -0.1880 nb         1 918      -0.280000
      6 FAZ         -3.6230    -0.5420     2.4850 f          1 918      -0.109333
      7 FBA         -1.5210    -0.2040     2.2740 f          1 918      -0.109333
      8 FBB         -2.4860    -1.7920     1.1700 f          1 918      -0.109333
      9 CAN         -2.9000     0.4190     0.4610 ca         1 918      -0.077300
     10 CAM         -4.2100     0.7520     0.2060 ca         1 918      -0.203000
     11 CAL         -4.4980     1.6660    -0.8260 ca         1 918       0.612900
     12 NAP         -5.7770     1.9800    -1.1340 nv         1 918      -1.063900
     13 NAK         -3.5320     2.2290    -1.5460 nb         1 918      -0.734000
     14 CAJ         -2.2780     1.8960    -1.2820 ca         1 918       0.401900
     15 CAH         -1.8730     0.9940    -0.3080 cp         1 918      -0.213500
     16 NAI          2.8200     2.2480     0.1130 nh         1 918      -0.791300
     17 CAV          4.2300     1.8850     0.1590 c5         1 918       0.231300
     18 CAW          4.9370     3.2180    -0.0570 c5         1 918      -0.096400
     19 CAX          3.9750     4.2270     0.5630 c5         1 918      -0.096400
     20 CAY          2.6040     3.6850     0.1740 c5         1 918       0.231300
     21 C2           1.2190    -0.8500    -0.0810 ca         1 918       0.434900
     22 NAG          1.6000    -2.1580    -0.0990 nh         1 918      -0.769300
     23 CAQ          0.6290    -3.2240     0.0640 c6         1 918       0.186300
     24 CAR          1.0980    -4.4650    -0.6720 c6         1 918       0.141100
     25 OAS          2.3970    -4.8520    -0.2820 os         1 918      -0.448000
     26 CAT          3.3190    -3.8160    -0.5300 c6         1 918       0.141100
     27 CAU          2.9600    -2.5460     0.2180 c6         1 918       0.186300
     28 H1           0.1570     2.7530    -0.0470 ha         1 918       0.131000
     29 H2          -5.0240     0.3430     0.7880 ha         1 918       0.137000
     30 H3          -6.5070     1.7650    -0.4760 hn         1 918       0.484500
     31 H4          -5.9350     2.7890    -1.7100 hn         1 918       0.484500
     32 H5          -1.5250     2.3690    -1.9030 h4         1 918       0.027100
     33 H6           4.4880     1.4490     1.1290 h1         1 918       0.052700
     34 H7           4.4710     1.1450    -0.6040 h1         1 918       0.052700
     35 H8           5.9280     3.2350     0.3960 hc         1 918       0.055450
     36 H9           5.0550     3.4150    -1.1250 hc         1 918       0.055450
     37 H10          4.0820     4.2310     1.6500 hc         1 918       0.055450
     38 H11          4.1310     5.2460     0.2090 hc         1 918       0.055450
     39 H12          2.2810     4.0750    -0.7970 h1         1 918       0.052700
     40 H13          1.8370     3.9420     0.9060 h1         1 918       0.052700
     41 H14          0.4860    -3.4500     1.1290 h1         1 918       0.064450
     42 H15         -0.3310    -2.9090    -0.3340 h1         1 918       0.064450
     43 H16          0.4270    -5.2970    -0.4500 h1         1 918       0.051700
     44 H17          1.0620    -4.2810    -1.7550 h1         1 918       0.051700
     45 H18          4.3010    -4.1660    -0.2080 h1         1 918       0.051700
     46 H19          3.3740    -3.6000    -1.6070 h1         1 918       0.051700
     47 H20          3.6450    -1.7520    -0.0670 h1         1 918       0.064450
     48 H21          3.0720    -2.7070     1.2990 h1         1 918       0.064450
     49 CAO         -2.6210    -0.5330     1.5950 c3         1 918       0.361300
@<TRIPOS>BOND
     1     1     2 ar  
     2     1     5 ar  
     3     1    15 1   
     4     2     3 ar  
     5     2    28 1   
     6     3     4 ar  
     7     3    16 1   
     8     4    21 ar  
     9     5    21 ar  
    10     6    49 1   
    11     7    49 1   
    12     8    49 1   
    13     9    10 ar  
    14     9    15 ar  
    15     9    49 1   
    16    10    11 ar  
    17    10    29 1   
    18    11    12 1   
    19    11    13 ar  
    20    12    30 1   
    21    12    31 1   
    22    13    14 ar  
    23    14    15 ar  
    24    14    32 1   
    25    16    17 1   
    26    16    20 1   
    27    17    18 1   
    28    17    33 1   
    29    17    34 1   
    30    18    19 1   
    31    18    35 1   
    32    18    36 1   
    33    19    20 1   
    34    19    37 1   
    35    19    38 1   
    36    20    39 1   
    37    20    40 1   
    38    21    22 1   
    39    22    23 1   
    40    22    27 1   
    41    23    24 1   
    42    23    41 1   
    43    23    42 1   
    44    24    25 1   
    45    24    43 1   
    46    24    44 1   
    47    25    26 1   
    48    26    27 1   
    49    26    45 1   
    50    26    46 1   
    51    27    47 1   
    52    27    48 1   
@<TRIPOS>SUBSTRUCTURE
     1 918         1 TEMP              0 ****  ****    0 ROOT
