@<TRIPOS>MOLECULE
918
   49    52     1     0     0
SMALL
No Charge or Current Charge


@<TRIPOS>ATOM
      1 C4          -0.4900     0.7120    -0.2050 cp         1 918       0.243500
      2 C5           0.4690     1.7370    -0.1050 ca         1 918      -0.335000
      3 C6           1.8200     1.3740    -0.0260 ca         1 918       0.435900
      4 N1           2.1930     0.0860    -0.0560 nb         1 918      -0.333000
      5 N3          -0.0990    -0.5700    -0.2510 nb         1 918      -0.280000
      6 FAZ         -3.7190    -0.7840     2.4380 f          1 918      -0.109333
      7 FBA         -1.6130    -0.3100     2.3370 f          1 918      -0.109333
      8 FBB         -2.4410    -1.8850     1.0780 f          1 918      -0.109333
      9 CAN         -2.9650     0.3760     0.4620 ca         1 918      -0.077300
     10 CAM         -4.2980     0.7560     0.1880 ca         1 918      -0.203000
     11 CAL         -4.5510     1.7140    -0.7940 ca         1 918       0.612900
     12 NAP         -5.7740     2.1450    -1.1130 nv         1 918      -1.063900
     13 NAK         -3.6310     2.3290    -1.5140 nb         1 918      -0.734000
     14 CAJ         -2.3490     1.9770    -1.2780 ca         1 918       0.401900
     15 CAH         -1.9470     1.0080    -0.3240 cp         1 918      -0.213500
     16 NAI          2.8470     2.3340     0.0830 nh         1 918      -0.791300
     17 CAV          4.2970     2.0010     0.0460 c5         1 918       0.231300
     18 CAW          4.9320     3.3980    -0.1670 c5         1 918      -0.096400
     19 CAX          4.0100     4.2840     0.7080 c5         1 918      -0.096400
     20 CAY          2.6080     3.7900     0.2700 c5         1 918       0.231300
     21 C2           1.2180    -0.8350    -0.1650 ca         1 918       0.434900
     22 NAG          1.6120    -2.2010    -0.1990 nh         1 918      -0.769300
     23 CAQ          0.5950    -3.3040    -0.0330 c6         1 918       0.186300
     24 CAR          1.0980    -4.6860    -0.5460 c6         1 918       0.141100
     25 OAS          2.3990    -4.9990    -0.0030 os         1 918      -0.448000
     26 CAT          3.3970    -4.0270    -0.3840 c6         1 918       0.141100
     27 CAU          3.0250    -2.6080     0.1400 c6         1 918       0.186300
     28 H1           0.1600     2.7750    -0.0850 ha         1 918       0.131000
     29 H2          -5.1330     0.3180     0.7270 ha         1 918       0.137000
     30 H3          -6.5020     2.0360    -0.4150 hn         1 918       0.484500
     31 H4          -5.7980     2.9980    -1.6590 hn         1 918       0.484500
     32 H5          -1.6030     2.4810    -1.8920 h4         1 918       0.027100
     33 H6           4.6240     1.5520     0.9940 h1         1 918       0.052700
     34 H7           4.5570     1.3160    -0.7740 h1         1 918       0.052700
     35 H8           5.9810     3.4320     0.1470 hc         1 918       0.055450
     36 H9           4.8920     3.6970    -1.2210 hc         1 918       0.055450
     37 H10          4.1790     4.1050     1.7760 hc         1 918       0.055450
     38 H11          4.1500     5.3560     0.5270 hc         1 918       0.055450
     39 H12          2.2920     4.2620    -0.6700 h1         1 918       0.052700
     40 H13          1.8540     4.0020     1.0420 h1         1 918       0.052700
     41 H14          0.3240    -3.4020     1.0290 h1         1 918       0.064450
     42 H15         -0.3300    -3.0750    -0.5810 h1         1 918       0.064450
     43 H16          0.3870    -5.4710    -0.2550 h1         1 918       0.051700
     44 H17          1.1590    -4.6740    -1.6440 h1         1 918       0.051700
     45 H18          4.3710    -4.3300     0.0250 h1         1 918       0.051700
     46 H19          3.4820    -4.0080    -1.4800 h1         1 918       0.051700
     47 H20          3.7520    -1.9050    -0.2920 h1         1 918       0.064450
     48 H21          3.1660    -2.5890     1.2300 h1         1 918       0.064450
     49 CAO         -2.6810    -0.6520     1.5800 c3         1 918       0.361300
@<TRIPOS>BOND
     1     1     2 ar  
     2     1     5 ar  
     3     1    15 1   
     4     2     3 ar  
     5     2    28 1   
     6     3     4 ar  
     7     3    16 1   
     8     4    21 ar  
     9     5    21 ar  
    10     6    49 1   
    11     7    49 1   
    12     8    49 1   
    13     9    10 ar  
    14     9    15 ar  
    15     9    49 1   
    16    10    11 ar  
    17    10    29 1   
    18    11    12 1   
    19    11    13 ar  
    20    12    30 1   
    21    12    31 1   
    22    13    14 ar  
    23    14    15 ar  
    24    14    32 1   
    25    16    17 1   
    26    16    20 1   
    27    17    18 1   
    28    17    33 1   
    29    17    34 1   
    30    18    19 1   
    31    18    35 1   
    32    18    36 1   
    33    19    20 1   
    34    19    37 1   
    35    19    38 1   
    36    20    39 1   
    37    20    40 1   
    38    21    22 1   
    39    22    23 1   
    40    22    27 1   
    41    23    24 1   
    42    23    41 1   
    43    23    42 1   
    44    24    25 1   
    45    24    43 1   
    46    24    44 1   
    47    25    26 1   
    48    26    27 1   
    49    26    45 1   
    50    26    46 1   
    51    27    47 1   
    52    27    48 1   
@<TRIPOS>SUBSTRUCTURE
     1 918         1 TEMP              0 ****  ****    0 ROOT
