@<TRIPOS>MOLECULE
919
   69    73     1     0     0
SMALL
No Charge or Current Charge


@<TRIPOS>ATOM
      1 C1           4.9180     0.2970     0.3250 ca         1 919       0.011800
      2 C2           4.7600    -0.3750     1.5510 ca         1 919      -0.118000
      3 C3           5.3160    -1.6550     1.7330 ca         1 919      -0.071000
      4 C4           6.0380    -2.2850     0.7020 ca         1 919       0.264000
      5 C5           6.1940    -1.5990    -0.5310 ca         1 919      -0.078000
      6 C6           5.6380    -0.3180    -0.7140 ca         1 919      -0.077000
      7 C9           7.2530    -4.1030    -0.1030 ca         1 919       0.355900
      8 N10          6.5630    -3.5180     0.9040 nb         1 919      -0.657000
      9 C13          6.9130    -2.2110    -1.5730 ca         1 919      -0.057000
     10 C14          7.4500    -3.4880    -1.3490 ca         1 919      -0.163000
     11 C22         -8.5520    -1.4190    -1.0420 ca         1 919       0.362900
     12 N23         -8.5920    -0.7580     0.1380 nb         1 919      -0.698000
     13 C24         -7.4540    -0.6920     0.8940 ca         1 919       0.319500
     14 C25         -6.2540    -1.2940     0.4620 ca         1 919      -0.182000
     15 C26         -6.2230    -1.9650    -0.7700 ca         1 919       0.163100
     16 C27         -7.3940    -2.0370    -1.5280 ca         1 919      -0.181000
     17 C34         -2.2740    -0.1780    -0.9590 ca         1 919      -0.071000
     18 C35         -3.5720    -0.6850    -1.1520 ca         1 919      -0.114000
     19 C36         -3.8210    -2.0650    -1.0310 ca         1 919       0.103100
     20 C37         -2.7660    -2.9390    -0.7380 ca         1 919      -0.136000
     21 C38         -1.4710    -2.4340    -0.5440 ca         1 919       0.149000
     22 C39         -1.2050    -1.0520    -0.6470 ca         1 919      -0.055000
     23 C46          4.0440     3.6120    -0.1170 cc         1 919       0.281300
     24 C47          2.7900     2.9730    -0.2750 cc         1 919      -0.215000
     25 C48          2.9930     1.6370    -0.1160 cd         1 919       0.017600
     26 N49          4.3640     1.5630     0.1390 na         1 919       0.187000
     27 N50          5.0350     2.7680     0.1320 nd         1 919      -0.508800
     28 C58          0.7170     0.6500    -0.4420 c          1 919       0.670100
     29 N60          0.1350    -0.6100    -0.4390 ns         1 919      -0.171000
     30 O63          0.1100     1.6920    -0.6390 o          1 919      -0.582100
     31 F68         -0.4690    -3.2960    -0.2560 f          1 919      -0.175000
     32 O72         -6.5260     0.1570     2.9860 o          1 919      -0.601100
     33 N74         -8.7160     0.6040     2.5770 ns         1 919      -0.486900
     34 C76         -8.9880     1.3520     3.8050 c3         1 919       0.096300
     35 C79          4.2080     5.1270    -0.2350 c3         1 919      -0.073300
     36 C81          3.3260     5.8300     0.8320 c3         1 919      -0.080433
     37 C83          5.6860     5.5650    -0.0130 c3         1 919      -0.080433
     38 C85          3.7700     5.5880    -1.6500 c3         1 919      -0.080433
     39 H2           4.2080     0.0940     2.3630 ha         1 919       0.134000
     40 H3           5.1890    -2.1650     2.6830 ha         1 919       0.138000
     41 H6           5.7630     0.2030    -1.6620 ha         1 919       0.140000
     42 H9           7.6600    -5.0930     0.0970 h4         1 919       0.021100
     43 H13          7.0510    -1.7130    -2.5310 ha         1 919       0.124000
     44 H14          8.0120    -4.0000    -2.1260 ha         1 919       0.127000
     45 H22         -9.4800    -1.4520    -1.6120 h4         1 919       0.024100
     46 H25         -5.3660    -1.2400     1.0840 ha         1 919       0.164000
     47 H27         -7.4110    -2.5580    -2.4790 ha         1 919       0.141000
     48 H34         -2.1230     0.8920    -1.0600 ha         1 919       0.143000
     49 H35         -4.3810    -0.0030    -1.4030 ha         1 919       0.139000
     50 H37         -2.9500    -4.0060    -0.6560 ha         1 919       0.151000
     51 H47          1.8580     3.4820    -0.4900 ha         1 919       0.164000
     52 HN56         2.4220    -0.3460    -0.0490 hn         1 919       0.327500
     53 HN60         0.7800    -1.3660    -0.2540 hn         1 919       0.163000
     54 HN74        -9.4630     0.4660     1.9010 hn         1 919       0.343500
     55 H76         -8.3350     2.2340     3.8530 h1         1 919       0.040700
     56 H76A       -10.0360     1.6770     3.8130 h1         1 919       0.040700
     57 H76B        -8.8000     0.7120     4.6770 h1         1 919       0.040700
     58 H81          3.6030     5.5020     1.8410 hc         1 919       0.037144
     59 H81A         3.4450     6.9200     0.7850 hc         1 919       0.037144
     60 H81B         2.2640     5.6040     0.6830 hc         1 919       0.037144
     61 H83          6.3490     5.1060    -0.7570 hc         1 919       0.037144
     62 H83A         5.7900     6.6530    -0.0990 hc         1 919       0.037144
     63 H83B         6.0380     5.2730     0.9840 hc         1 919       0.037144
     64 H85          2.7140     5.3570    -1.8360 hc         1 919       0.037144
     65 H85A         3.9010     6.6710    -1.7700 hc         1 919       0.037144
     66 H85B         4.3660     5.0870    -2.4230 hc         1 919       0.037144
     67 N56          2.0740     0.5940    -0.1920 ns         1 919      -0.420100
     68 O65         -5.0810    -2.5820    -1.2290 os         1 919      -0.245200
     69 C70         -7.4950     0.0490     2.2400 c          1 919       0.498600
@<TRIPOS>BOND
     1     1     2 ar  
     2     1     6 ar  
     3     1    26 1   
     4     2     3 ar  
     5     2    39 1   
     6     3     4 ar  
     7     3    40 1   
     8     4     5 ar  
     9     4     8 ar  
    10     5     6 ar  
    11     5     9 ar  
    12     6    41 1   
    13     7     8 ar  
    14     7    10 ar  
    15     7    42 1   
    16     9    10 ar  
    17     9    43 1   
    18    10    44 1   
    19    11    12 ar  
    20    11    16 ar  
    21    11    45 1   
    22    12    13 ar  
    23    13    14 ar  
    24    13    69 1   
    25    14    15 ar  
    26    14    46 1   
    27    15    16 ar  
    28    15    68 1   
    29    16    47 1   
    30    17    18 ar  
    31    17    22 ar  
    32    17    48 1   
    33    18    19 ar  
    34    18    49 1   
    35    19    20 ar  
    36    19    68 1   
    37    20    21 ar  
    38    20    50 1   
    39    21    22 ar  
    40    21    31 1   
    41    22    29 1   
    42    23    24 1   
    43    23    27 2   
    44    23    35 1   
    45    24    25 2   
    46    24    51 1   
    47    25    26 1   
    48    25    67 1   
    49    26    27 1   
    50    28    29 1   
    51    28    30 2   
    52    28    67 1   
    53    29    53 1   
    54    32    69 2   
    55    33    34 1   
    56    33    54 1   
    57    33    69 1   
    58    34    55 1   
    59    34    56 1   
    60    34    57 1   
    61    35    36 1   
    62    35    37 1   
    63    35    38 1   
    64    36    58 1   
    65    36    59 1   
    66    36    60 1   
    67    37    61 1   
    68    37    62 1   
    69    37    63 1   
    70    38    64 1   
    71    38    65 1   
    72    38    66 1   
    73    52    67 1   
@<TRIPOS>SUBSTRUCTURE
     1 919         1 TEMP              0 ****  ****    0 ROOT
