@<TRIPOS>MOLECULE
919
   69    73     1     0     0
SMALL
bcc


@<TRIPOS>ATOM
      1 C1           4.4950     0.0110     0.1940 ca         1 919       0.011800
      2 C2           3.8410    -1.0400     0.8780 ca         1 919      -0.136000
      3 C3           4.5180    -2.1860     1.1850 ca         1 919      -0.154300
      4 C4           5.8830    -2.3310     0.8480 ca         1 919       0.394600
      5 C5           6.5350    -1.2640     0.1810 ca         1 919      -0.143300
      6 C6           5.8170    -0.0980    -0.1470 ca         1 919      -0.095000
      7 C9           7.7840    -3.5910     0.8730 ca         1 919       0.421200
      8 N10          6.5200    -3.4770     1.1820 nb         1 919      -0.657000
      9 C13          7.9020    -1.4290    -0.1370 ca         1 919      -0.075000
     10 C14          8.5280    -2.5920     0.2090 ca         1 919      -0.246300
     11 C22         -8.6420    -1.2560    -0.1880 ca         1 919       0.428200
     12 N23         -8.2860    -0.5800     0.8960 nb         1 919      -0.698000
     13 C24         -6.9900    -0.3800     1.1000 ca         1 919       0.384800
     14 C25         -5.9940    -0.8330     0.2480 ca         1 919      -0.265300
     15 C26         -6.3850    -1.5340    -0.8850 ca         1 919       0.163100
     16 C27         -7.7390    -1.7540    -1.1100 ca         1 919      -0.264300
     17 C34         -2.3580    -0.2560    -2.1410 ca         1 919      -0.089000
     18 C35         -3.7150    -0.5280    -2.1970 ca         1 919      -0.132000
     19 C36         -4.1890    -1.7300    -1.6980 ca         1 919       0.103100
     20 C37         -3.3330    -2.6610    -1.1370 ca         1 919      -0.154000
     21 C38         -1.9890    -2.3530    -1.0790 ca         1 919       0.113900
     22 C39         -1.4680    -1.1620    -1.5700 ca         1 919       0.037600
     23 C46          3.5200     3.2940    -0.2890 cc         1 919       0.346600
     24 C47          2.3360     2.6910    -0.7690 cc         1 919      -0.298300
     25 C48          2.5580     1.3430    -0.6450 cd         1 919       0.068300
     26 N49          3.7960     1.1970    -0.1000 na         1 919       0.136300
     27 N50          4.3910     2.3870     0.0930 nd         1 919      -0.508800
     28 C58          0.4380     0.2340    -1.0130 c          1 919       0.804100
     29 N60         -0.0910    -0.9260    -1.5060 ns         1 919      -0.497100
     30 O63         -0.2310     1.1680    -0.6200 o          1 919      -0.582100
     31 F68         -1.1470    -3.2410    -0.5350 f          1 919      -0.139900
     32 O72         -5.4160     0.6080     2.5920 o          1 919      -0.601100
     33 N74         -7.6110     0.7880     3.0930 ns         1 919      -0.553900
     34 C76         -7.4240     1.5430     4.3070 c3         1 919       0.096300
     35 C79          3.8110     4.7680    -0.2020 c3         1 919      -0.073300
     36 C81          2.8360     5.4120     0.7920 c3         1 919      -0.080433
     37 C83          5.2450     5.0220     0.2590 c3         1 919      -0.080433
     38 C85          3.6060     5.4000    -1.5840 c3         1 919      -0.080433
     39 H2           2.8080    -0.9290     1.1810 ha         1 919       0.152000
     40 H3           4.0240    -2.9910     1.7120 ha         1 919       0.156000
     41 H6           6.3190     0.7100    -0.6650 ha         1 919       0.158000
     42 H9           8.2720    -4.5190     1.1530 h4         1 919       0.021100
     43 H13          8.4340    -0.6360    -0.6470 ha         1 919       0.142000
     44 H14          9.5720    -2.7600    -0.0150 ha         1 919       0.145000
     45 H22         -9.7030    -1.4100    -0.3400 h4         1 919       0.024100
     46 H25         -4.9570    -0.6360     0.4810 ha         1 919       0.182000
     47 H27         -8.0820    -2.2950    -1.9820 ha         1 919       0.159000
     48 H34         -1.9870     0.6680    -2.5590 ha         1 919       0.161000
     49 H35         -4.3910     0.1850    -2.6500 ha         1 919       0.157000
     50 H37         -3.6980    -3.6020    -0.7470 ha         1 919       0.169000
     51 H47          1.4590     3.1690    -1.1680 ha         1 919       0.182000
     52 HN56         2.3050    -0.5480    -1.4030 hn         1 919       0.327500
     53 HN60         0.5220    -1.7050    -1.6950 hn         1 919       0.329500
     54 HN74        -8.5430     0.5620     2.7820 hn         1 919       0.343500
     55 H76         -6.9500     2.5060     4.1130 h1         1 919       0.040700
     56 H76A        -8.3980     1.7230     4.7530 h1         1 919       0.040700
     57 H76B        -6.8110     1.0000     5.0270 h1         1 919       0.040700
     58 H81          2.9600     4.9980     1.7950 hc         1 919       0.037144
     59 H81A         3.0120     6.4880     0.8500 hc         1 919       0.037144
     60 H81B         1.7970     5.2610     0.4940 hc         1 919       0.037144
     61 H83          5.9730     4.5870    -0.4260 hc         1 919       0.037144
     62 H83A         5.4280     6.0970     0.3060 hc         1 919       0.037144
     63 H83B         5.4320     4.6090     1.2510 hc         1 919       0.037144
     64 H85          2.5820     5.2740    -1.9400 hc         1 919       0.037144
     65 H85A         3.8120     6.4720    -1.5430 hc         1 919       0.037144
     66 H85B         4.2740     4.9580    -2.3260 hc         1 919       0.037144
     67 N56          1.8100     0.2400    -1.0130 ns         1 919      -0.487100
     68 O65         -5.5260    -2.0350    -1.7970 os         1 919      -0.245200
     69 C70         -6.5920     0.3860     2.3340 c          1 919       0.565600
@<TRIPOS>BOND
     1     1     2 ar  
     2     1     6 ar  
     3     1    26 1   
     4     2     3 ar  
     5     2    39 1   
     6     3     4 ar  
     7     3    40 1   
     8     4     5 ar  
     9     4     8 ar  
    10     5     6 ar  
    11     5     9 ar  
    12     6    41 1   
    13     7     8 ar  
    14     7    10 ar  
    15     7    42 1   
    16     9    10 ar  
    17     9    43 1   
    18    10    44 1   
    19    11    12 ar  
    20    11    16 ar  
    21    11    45 1   
    22    12    13 ar  
    23    13    14 ar  
    24    13    69 1   
    25    14    15 ar  
    26    14    46 1   
    27    15    16 ar  
    28    15    68 1   
    29    16    47 1   
    30    17    18 ar  
    31    17    22 ar  
    32    17    48 1   
    33    18    19 ar  
    34    18    49 1   
    35    19    20 ar  
    36    19    68 1   
    37    20    21 ar  
    38    20    50 1   
    39    21    22 ar  
    40    21    31 1   
    41    22    29 1   
    42    23    24 1   
    43    23    27 2   
    44    23    35 1   
    45    24    25 2   
    46    24    51 1   
    47    25    26 1   
    48    25    67 1   
    49    26    27 1   
    50    28    29 1   
    51    28    30 2   
    52    28    67 1   
    53    29    53 1   
    54    32    69 2   
    55    33    34 1   
    56    33    54 1   
    57    33    69 1   
    58    34    55 1   
    59    34    56 1   
    60    34    57 1   
    61    35    36 1   
    62    35    37 1   
    63    35    38 1   
    64    36    58 1   
    65    36    59 1   
    66    36    60 1   
    67    37    61 1   
    68    37    62 1   
    69    37    63 1   
    70    38    64 1   
    71    38    65 1   
    72    38    66 1   
    73    52    67 1   
@<TRIPOS>SUBSTRUCTURE
     1 919         1 TEMP              0 ****  ****    0 ROOT
