@<TRIPOS>MOLECULE
91A
   46    48     1     0     0
SMALL
No Charge or Current Charge


@<TRIPOS>ATOM
      1 C4          -0.5790   108.7790    43.7580 c3         1 91A      -0.087400
      2 C5           0.1600   107.4960    44.2390 c3         1 91A       0.109700
      3 C7          -0.7090   106.6990    45.2590 c3         1 91A       0.137800
      4 C10          1.6880   108.7960    45.8320 c6         1 91A       0.114000
      5 C13          5.3860   108.1460    46.5510 cc         1 91A      -0.058000
      6 C17          2.6670   107.1870    44.1490 c          1 91A       0.617600
      7 C20          5.1350   108.5410    49.0420 ca         1 91A      -0.067000
      8 C21          5.7010   108.9820    50.2500 ca         1 91A      -0.165000
      9 C22          7.0200   109.4580    50.2590 ca         1 91A       0.333900
     10 C24          7.2350   109.0800    47.9840 ca         1 91A       0.344900
     11 C2           0.1420   109.6030    42.6530 c3         1 91A      -0.056700
     12 C3           0.2850   108.8230    41.3240 c3         1 91A      -0.091100
     13 N8          -0.1130   105.4060    45.6780 n8         1 91A      -0.990200
     14 N9           1.5330   107.7760    44.7590 n          1 91A      -0.382800
     15 C11          2.8070   108.4560    46.8360 c6         1 91A      -0.033100
     16 C12          4.0370   108.0120    46.0880 cc         1 91A      -0.053300
     17 C14          6.2940   107.6280    45.6520 cd         1 91A      -0.250000
     18 S15          5.5150   106.9790    44.1990 ss         1 91A       0.339000
     19 C16          3.9440   107.4410    44.8470 cd         1 91A      -0.309600
     20 O18          2.6070   106.5250    43.1220 o          1 91A      -0.577000
     21 C19          5.9080   108.5930    47.8610 ca         1 91A      -0.062000
     22 N23          7.7840   109.5090    49.1470 nb         1 91A      -0.666000
     23 H1          -0.7620   109.4280    44.6240 hc         1 91A       0.040700
     24 H2          -1.5710   108.4930    43.3850 hc         1 91A       0.040700
     25 H3           0.2440   106.8450    43.3610 h1         1 91A       0.086700
     26 H4          -0.8780   107.3090    46.1570 h1         1 91A       0.029200
     27 H5          -1.6890   106.4890    44.8070 h1         1 91A       0.029200
     28 H6           1.9230   109.7590    45.3560 h1         1 91A       0.045700
     29 H7           0.7440   108.9260    46.3780 h1         1 91A       0.045700
     30 H9           5.1320   108.9460    51.1740 ha         1 91A       0.123000
     31 H10          7.4810   109.8040    51.1840 h4         1 91A       0.019100
     32 H11          7.8850   109.1610    47.1140 h4         1 91A       0.021100
     33 H12         -0.6200   111.5350    43.3440 hc         1 91A       0.035033
     34 H13         -0.0370   111.5510    41.6700 hc         1 91A       0.035033
     35 H14         -1.5980   110.7940    42.0580 hc         1 91A       0.035033
     36 H15          1.1540   109.8400    43.0050 hc         1 91A       0.051700
     37 H16          0.8910   107.9200    41.4550 hc         1 91A       0.035033
     38 H17         -0.6970   108.5260    40.9380 hc         1 91A       0.035033
     39 H18          0.7780   109.4420    40.5650 hc         1 91A       0.035033
     40 H19         -0.7830   104.9010    46.2710 hn         1 91A       0.396500
     41 H20         -0.0110   104.7980    44.8570 hn         1 91A       0.396500
     42 H22          3.0020   109.3410    47.4560 hc         1 91A       0.066700
     43 H23          2.4570   107.6570    47.5020 hc         1 91A       0.066700
     44 H24          7.3680   107.5290    45.7470 h4         1 91A       0.153000
     45 H8           4.1310   108.1320    49.0530 ha         1 91A       0.122000
     46 C1          -0.5740   110.9520    42.4160 c3         1 91A      -0.091100
@<TRIPOS>BOND
     1     1     2 1   
     2     1    11 1   
     3     1    23 1   
     4     1    24 1   
     5     2     3 1   
     6     2    14 1   
     7     2    25 1   
     8     3    13 1   
     9     3    26 1   
    10     3    27 1   
    11     4    14 1   
    12     4    15 1   
    13     4    28 1   
    14     4    29 1   
    15     5    16 1   
    16     5    17 2   
    17     5    21 1   
    18     6    14 1   
    19     6    19 1   
    20     6    20 2   
    21     7     8 ar  
    22     7    21 ar  
    23     7    45 1   
    24     8     9 ar  
    25     8    30 1   
    26     9    22 ar  
    27     9    31 1   
    28    10    21 ar  
    29    10    22 ar  
    30    10    32 1   
    31    11    12 1   
    32    11    36 1   
    33    11    46 1   
    34    12    37 1   
    35    12    38 1   
    36    12    39 1   
    37    13    40 1   
    38    13    41 1   
    39    15    16 1   
    40    15    42 1   
    41    15    43 1   
    42    16    19 2   
    43    17    18 1   
    44    17    44 1   
    45    18    19 1   
    46    33    46 1   
    47    34    46 1   
    48    35    46 1   
@<TRIPOS>SUBSTRUCTURE
     1 91A         1 TEMP              0 ****  ****    0 ROOT
