@<TRIPOS>MOLECULE
91A
   46    48     1     0     0
SMALL
abcg2


@<TRIPOS>ATOM
      1 C4          -0.4820   108.8210    43.7680 c3         1 91A      -0.087400
      2 C5           0.1900   107.5380    44.2580 c3         1 91A       0.109700
      3 C7          -0.6670   106.8360    45.3120 c3         1 91A       0.137800
      4 C10          1.7130   108.7640    45.8240 c6         1 91A       0.114000
      5 C13          5.3740   108.0480    46.5250 cc         1 91A      -0.058000
      6 C17          2.6040   107.1970    44.1800 c          1 91A       0.617600
      7 C20          5.2100   108.2120    49.0190 ca         1 91A      -0.067000
      8 C21          5.7060   108.7130    50.2100 ca         1 91A      -0.165000
      9 C22          6.8230   109.5330    50.1720 ca         1 91A       0.333900
     10 C24          6.9490   109.3940    47.9050 ca         1 91A       0.344900
     11 C2           0.2540   109.5730    42.6590 c3         1 91A      -0.056700
     12 C3           0.3420   108.7620    41.3700 c3         1 91A      -0.091100
     13 N8          -0.0360   105.6190    45.7870 n8         1 91A      -0.990200
     14 N9           1.5380   107.7850    44.7550 n          1 91A      -0.382800
     15 C11          2.7610   108.3440    46.8410 c6         1 91A      -0.033100
     16 C12          4.0100   107.9700    46.1140 cc         1 91A      -0.053300
     17 C14          6.2150   107.6030    45.5380 cd         1 91A      -0.250000
     18 S15          5.3880   107.0760    44.1420 ss         1 91A       0.339000
     19 C16          3.8810   107.4750    44.8500 cd         1 91A      -0.309600
     20 O18          2.5650   106.4640    43.1970 o          1 91A      -0.577000
     21 C19          5.8380   108.5520    47.8230 ca         1 91A      -0.062000
     22 N23          7.4350   109.8680    49.0420 nb         1 91A      -0.666000
     23 H1          -0.6380   109.4980    44.6160 hc         1 91A       0.040700
     24 H2          -1.4840   108.5570    43.4130 hc         1 91A       0.040700
     25 H3           0.2930   106.8530    43.4160 h1         1 91A       0.086700
     26 H4          -0.8250   107.4980    46.1670 h1         1 91A       0.029200
     27 H5          -1.6590   106.6800    44.8630 h1         1 91A       0.029200
     28 H6           1.9880   109.7360    45.3990 h1         1 91A       0.045700
     29 H7           0.7590   108.8940    46.3290 h1         1 91A       0.045700
     30 H9           5.2410   108.4660    51.1550 ha         1 91A       0.123000
     31 H10          7.2400   109.9340    51.0890 h4         1 91A       0.019100
     32 H11          7.4580   109.7020    46.9970 h4         1 91A       0.021100
     33 H12         -0.4680   111.5180    43.3110 hc         1 91A       0.035033
     34 H13          0.0870   111.4870    41.6380 hc         1 91A       0.035033
     35 H14         -1.4640   110.7660    42.0660 hc         1 91A       0.035033
     36 H15          1.2740   109.7820    43.0010 hc         1 91A       0.051700
     37 H16          0.9110   107.8410    41.4990 hc         1 91A       0.035033
     38 H17         -0.6550   108.4910    41.0120 hc         1 91A       0.035033
     39 H18          0.8300   109.3370    40.5820 hc         1 91A       0.035033
     40 H19         -0.6090   105.2080    46.5120 hn         1 91A       0.396500
     41 H20         -0.0110   104.9360    45.0390 hn         1 91A       0.396500
     42 H22          2.9280   109.1660    47.5380 hc         1 91A       0.066700
     43 H23          2.3940   107.4940    47.4240 hc         1 91A       0.066700
     44 H24          7.2930   107.5490    45.5780 h4         1 91A       0.153000
     45 H8           4.3560   107.5460    49.0240 ha         1 91A       0.122000
     46 C1          -0.4340   110.9110    42.4050 c3         1 91A      -0.091100
@<TRIPOS>BOND
     1     1     2 1   
     2     1    11 1   
     3     1    23 1   
     4     1    24 1   
     5     2     3 1   
     6     2    14 1   
     7     2    25 1   
     8     3    13 1   
     9     3    26 1   
    10     3    27 1   
    11     4    14 1   
    12     4    15 1   
    13     4    28 1   
    14     4    29 1   
    15     5    16 1   
    16     5    17 2   
    17     5    21 1   
    18     6    14 1   
    19     6    19 1   
    20     6    20 2   
    21     7     8 ar  
    22     7    21 ar  
    23     7    45 1   
    24     8     9 ar  
    25     8    30 1   
    26     9    22 ar  
    27     9    31 1   
    28    10    21 ar  
    29    10    22 ar  
    30    10    32 1   
    31    11    12 1   
    32    11    36 1   
    33    11    46 1   
    34    12    37 1   
    35    12    38 1   
    36    12    39 1   
    37    13    40 1   
    38    13    41 1   
    39    15    16 1   
    40    15    42 1   
    41    15    43 1   
    42    16    19 2   
    43    17    18 1   
    44    17    44 1   
    45    18    19 1   
    46    33    46 1   
    47    34    46 1   
    48    35    46 1   
@<TRIPOS>SUBSTRUCTURE
     1 91A         1 TEMP              0 ****  ****    0 ROOT
