@<TRIPOS>MOLECULE
91B
   34    35     1     0     0
SMALL
No Charge or Current Charge


@<TRIPOS>ATOM
      1 C11         -2.3690    -2.1770    -0.4750 ca         1 91B      -0.087000
      2 C10         -3.3070    -1.1350    -0.3930 ca         1 91B      -0.119000
      3 C12         -0.9950    -1.8950    -0.3860 ca         1 91B      -0.170000
      4 C8          -1.4960     0.4660    -0.1330 ca         1 91B      -0.153000
      5 C9          -2.8770     0.1940    -0.2210 ca         1 91B      -0.061300
      6 C7          -0.5450    -0.5690    -0.2160 ca         1 91B       0.292000
      7 C3           1.8270    -1.2830     0.3530 c6         1 91B       0.197800
      8 C5           1.4430     0.7400    -1.0560 c6         1 91B       0.197800
      9 C2           3.1520    -0.6360     0.8770 c6         1 91B       0.156300
     10 C6           2.7750     1.3470    -0.5040 c6         1 91B       0.156300
     11 C15          5.0430     0.8790     0.3720 c3         1 91B       0.151100
     12 C13         -3.8930     1.3260    -0.1330 c3         1 91B       0.196100
     13 N4           0.8350    -0.2660    -0.1250 nh         1 91B      -0.789400
     14 N1           3.7700     0.3020    -0.1100 n3         1 91B      -0.712600
     15 N14         -4.3980     1.5020     1.2420 n8         1 91B      -0.999200
     16 H11         -2.7060    -3.2020    -0.6090 ha         1 91B       0.109000
     17 H10         -4.3690    -1.3590    -0.4600 ha         1 91B       0.131000
     18 H12         -0.2850    -2.7120    -0.4620 ha         1 91B       0.111000
     19 H8          -1.1630     1.4890     0.0130 ha         1 91B       0.109000
     20 H131        -3.4300     2.2670    -0.4620 h1         1 91B       0.033200
     21 H132        -4.7430     1.1160    -0.7980 h1         1 91B       0.033200
     22 H31C         2.0750    -1.9730    -0.4680 h1         1 91B       0.043700
     23 H32C         1.3930    -1.8830     1.1670 h1         1 91B       0.043700
     24 H21C         2.9290    -0.1030     1.8130 h1         1 91B       0.038950
     25 H22C         3.8560    -1.4420     1.1290 h1         1 91B       0.038950
     26 H51C         0.7450     1.5670    -1.2500 h1         1 91B       0.043700
     27 H52C         1.6510     0.2630    -2.0250 h1         1 91B       0.043700
     28 H61C         3.2020     2.0070    -1.2730 h1         1 91B       0.038950
     29 H62C         2.5340     1.9810     0.3620 h1         1 91B       0.038950
     30 H151         5.7640     0.0840     0.6080 h1         1 91B       0.031367
     31 H152         5.4900     1.5250    -0.3950 h1         1 91B       0.031367
     32 H153         4.8840     1.4800     1.2780 h1         1 91B       0.031367
     33 H141        -3.6090     1.7540     1.8490 hn         1 91B       0.396500
     34 H142        -5.0030     2.3310     1.2710 hn         1 91B       0.396500
@<TRIPOS>BOND
     1     1     2 ar  
     2     1     3 ar  
     3     1    16 1   
     4     2     5 ar  
     5     2    17 1   
     6     3     6 ar  
     7     3    18 1   
     8     4     5 ar  
     9     4     6 ar  
    10     4    19 1   
    11     5    12 1   
    12     6    13 1   
    13     7     9 1   
    14     7    13 1   
    15     7    22 1   
    16     7    23 1   
    17     8    10 1   
    18     8    13 1   
    19     8    26 1   
    20     8    27 1   
    21     9    14 1   
    22     9    24 1   
    23     9    25 1   
    24    10    14 1   
    25    10    28 1   
    26    10    29 1   
    27    11    14 1   
    28    11    30 1   
    29    11    31 1   
    30    11    32 1   
    31    12    15 1   
    32    12    20 1   
    33    12    21 1   
    34    15    33 1   
    35    15    34 1   
@<TRIPOS>SUBSTRUCTURE
     1 91B         1 TEMP              0 ****  ****    0 ROOT
