@<TRIPOS>MOLECULE
91B
   34    35     1     0     0
SMALL
bcc


@<TRIPOS>ATOM
      1 C11         -2.2720    -2.0480    -0.0430 ca         1 91B      -0.105000
      2 C10         -3.2020    -1.0240    -0.0820 ca         1 91B      -0.137000
      3 C12         -0.9070    -1.7860    -0.0120 ca         1 91B      -0.188000
      4 C8          -1.3980     0.5600    -0.0240 ca         1 91B      -0.171000
      5 C9          -2.7590     0.2990    -0.0790 ca         1 91B      -0.061300
      6 C7          -0.4410    -0.4670     0.0030 ca         1 91B       0.153600
      7 C3           1.8560    -1.2430     0.2420 c6         1 91B       0.197800
      8 C5           1.4220     0.8620    -0.8320 c6         1 91B       0.197800
      9 C2           3.2150    -0.7170     0.6650 c6         1 91B       0.156300
     10 C6           2.7820     1.3590    -0.3850 c6         1 91B       0.156300
     11 C15          5.0380     0.7200     0.0890 c3         1 91B       0.151100
     12 C13         -3.7320     1.4500    -0.1580 c3         1 91B       0.196100
     13 N4           0.9160    -0.1520     0.0830 nh         1 91B      -0.651000
     14 N1           3.7180     0.2610    -0.2770 n3         1 91B      -0.712600
     15 N14         -4.9940     1.1530     0.4950 n8         1 91B      -0.888800
     16 H11         -2.6050    -3.0790    -0.0500 ha         1 91B       0.127000
     17 H10         -4.2610    -1.2380    -0.1080 ha         1 91B       0.149000
     18 H12         -0.2210    -2.6210    -0.0090 ha         1 91B       0.129000
     19 H8          -1.0730     1.5930     0.0240 ha         1 91B       0.127000
     20 H131        -3.2360     2.3540     0.2210 h1         1 91B       0.033200
     21 H132        -3.9440     1.6490    -1.2130 h1         1 91B       0.033200
     22 H31C         1.9590    -1.8320    -0.6830 h1         1 91B       0.043700
     23 H32C         1.5040    -1.9190     1.0220 h1         1 91B       0.043700
     24 H21C         3.1350    -0.2960     1.6830 h1         1 91B       0.038950
     25 H22C         3.9130    -1.5560     0.7190 h1         1 91B       0.038950
     26 H51C         0.7410     1.7100    -0.8710 h1         1 91B       0.043700
     27 H52C         1.5000     0.4590    -1.8520 h1         1 91B       0.043700
     28 H61C         3.1520     2.0770    -1.1210 h1         1 91B       0.038950
     29 H62C         2.6770     1.9000     0.5720 h1         1 91B       0.038950
     30 H151         5.7330    -0.1210     0.1180 h1         1 91B       0.031367
     31 H152         5.4060     1.4330    -0.6500 h1         1 91B       0.031367
     32 H153         5.0660     1.2130     1.0740 h1         1 91B       0.031367
     33 H141        -4.8600     1.1250     1.4980 hn         1 91B       0.341300
     34 H142        -5.6460     1.9060     0.3200 hn         1 91B       0.341300
@<TRIPOS>BOND
     1     1     2 ar  
     2     1     3 ar  
     3     1    16 1   
     4     2     5 ar  
     5     2    17 1   
     6     3     6 ar  
     7     3    18 1   
     8     4     5 ar  
     9     4     6 ar  
    10     4    19 1   
    11     5    12 1   
    12     6    13 1   
    13     7     9 1   
    14     7    13 1   
    15     7    22 1   
    16     7    23 1   
    17     8    10 1   
    18     8    13 1   
    19     8    26 1   
    20     8    27 1   
    21     9    14 1   
    22     9    24 1   
    23     9    25 1   
    24    10    14 1   
    25    10    28 1   
    26    10    29 1   
    27    11    14 1   
    28    11    30 1   
    29    11    31 1   
    30    11    32 1   
    31    12    15 1   
    32    12    20 1   
    33    12    21 1   
    34    15    33 1   
    35    15    34 1   
@<TRIPOS>SUBSTRUCTURE
     1 91B         1 TEMP              0 ****  ****    0 ROOT
