@<TRIPOS>MOLECULE
91C
   32    34     1     0     0
SMALL
No Charge or Current Charge


@<TRIPOS>ATOM
      1 CAA        -21.7450     0.8540   -11.6130 ca         1 91C      -0.257000
      2 CAB        -21.7560    -0.3880   -10.9740 ca         1 91C       0.290100
      3 CAC        -21.6740     2.0260   -10.8600 ca         1 91C       0.252100
      4 CAD        -21.6010     1.9610    -9.4660 ca         1 91C      -0.311000
      5 CAE        -21.5990     0.7180    -8.8260 ca         1 91C       0.269100
      6 CAG        -21.6960    -0.4680    -9.5740 ca         1 91C      -0.422600
      7 CAH        -21.7510    -1.7700    -8.8490 c          1 91C       0.615700
      8 CAI        -21.9350    -1.7000    -7.3470 c6         1 91C      -0.208400
      9 CAJ        -21.1160    -0.5270    -6.7990 c6         1 91C       0.237600
     10 CAL        -21.2860    -0.3460    -5.2880 ca         1 91C      -0.122300
     11 CAM        -22.5060     0.1200    -4.7540 ca         1 91C      -0.036500
     12 CAN        -20.2210    -0.6470    -4.4160 ca         1 91C      -0.036500
     13 CAO        -20.3720    -0.4850    -3.0270 ca         1 91C       0.044000
     14 CAP        -21.5930    -0.0190    -2.4930 ca         1 91C       0.177100
     15 CAQ        -22.6600     0.2830    -3.3660 ca         1 91C       0.044000
     16 OAF        -21.5090     0.6910    -7.4550 os         1 91C      -0.338100
     17 OAK        -21.6150    -2.8380    -9.4340 o          1 91C      -0.574100
     18 OAR        -21.7390     0.1380    -1.1380 oh         1 91C      -0.503100
     19 OAT        -21.6690     3.2310   -11.4870 oh         1 91C      -0.519100
     20 OAU        -21.8300    -1.5140   -11.7260 oh         1 91C      -0.535100
     21 ClS        -19.0170    -0.8730    -1.9660 cl         1 91C      -0.178000
     22 ClV        -24.2050     0.8700    -2.7440 cl         1 91C      -0.178000
     23 H1         -21.7960     0.9060   -12.6960 ha         1 91C       0.152000
     24 H2         -21.5370     2.8660    -8.8700 ha         1 91C       0.136000
     25 H3         -22.9910    -1.4610    -7.1690 hc         1 91C       0.090200
     26 H4         -21.6960    -2.6620    -6.8780 hc         1 91C       0.090200
     27 H5         -20.0530    -0.7030    -7.0240 h1         1 91C       0.062700
     28 H6         -23.3360     0.3600    -5.4150 ha         1 91C       0.139500
     29 H7         -19.2740    -1.0080    -4.8100 ha         1 91C       0.139500
     30 H8         -20.8950    -0.1210    -0.7090 ho         1 91C       0.485000
     31 H9         -21.6140     3.9270   -10.8000 ho         1 91C       0.476000
     32 H10        -21.7570    -2.2650   -11.0870 ho         1 91C       0.519000
@<TRIPOS>BOND
     1     1     2 ar  
     2     1     3 ar  
     3     1    23 1   
     4     2     6 ar  
     5     2    20 1   
     6     3     4 ar  
     7     3    19 1   
     8     4     5 ar  
     9     4    24 1   
    10     5     6 ar  
    11     5    16 1   
    12     6     7 1   
    13     7     8 1   
    14     7    17 2   
    15     8     9 1   
    16     8    25 1   
    17     8    26 1   
    18     9    10 1   
    19     9    16 1   
    20     9    27 1   
    21    10    11 ar  
    22    10    12 ar  
    23    11    15 ar  
    24    11    28 1   
    25    12    13 ar  
    26    12    29 1   
    27    13    14 ar  
    28    13    21 1   
    29    14    15 ar  
    30    14    18 1   
    31    15    22 1   
    32    18    30 1   
    33    19    31 1   
    34    20    32 1   
@<TRIPOS>SUBSTRUCTURE
     1 91C         1 TEMP              0 ****  ****    0 ROOT
