@<TRIPOS>MOLECULE
91C
   32    34     1     0     0
SMALL
abcg2


@<TRIPOS>ATOM
      1 CAA        -21.7150     0.8370   -11.5640 ca         1 91C      -0.257000
      2 CAB        -21.7400    -0.3920   -10.9280 ca         1 91C       0.290100
      3 CAC        -21.6420     1.9990   -10.7990 ca         1 91C       0.252100
      4 CAD        -21.5780     1.9540    -9.4040 ca         1 91C      -0.311000
      5 CAE        -21.5980     0.7240    -8.7760 ca         1 91C       0.269100
      6 CAG        -21.6860    -0.4740    -9.5120 ca         1 91C      -0.422600
      7 CAH        -21.8200    -1.7400    -8.8360 c          1 91C       0.615700
      8 CAI        -21.8860    -1.6790    -7.3360 c6         1 91C      -0.208400
      9 CAJ        -21.1050    -0.4870    -6.8080 c6         1 91C       0.237600
     10 CAL        -21.2680    -0.3070    -5.3270 ca         1 91C      -0.122300
     11 CAM        -22.4850     0.1070    -4.7930 ca         1 91C      -0.036500
     12 CAN        -20.2160    -0.5880    -4.4710 ca         1 91C      -0.036500
     13 CAO        -20.3810    -0.4640    -3.1020 ca         1 91C       0.044000
     14 CAP        -21.5880    -0.0480    -2.5420 ca         1 91C       0.177100
     15 CAQ        -22.6320     0.2360    -3.4270 ca         1 91C       0.044000
     16 OAF        -21.5380     0.7200    -7.4360 os         1 91C      -0.338100
     17 OAK        -21.9220    -2.8080    -9.4390 o          1 91C      -0.574100
     18 OAR        -21.8050     0.0980    -1.2370 oh         1 91C      -0.503100
     19 OAT        -21.6230     3.1570   -11.4630 oh         1 91C      -0.519100
     20 OAU        -21.8300    -1.4920   -11.6650 oh         1 91C      -0.535100
     21 CLS        -19.0610    -0.8230    -2.0410 cl         1 91C      -0.178000
     22 CLV        -24.1380     0.7600    -2.7670 cl         1 91C      -0.178000
     23 H1         -21.7600     0.8930   -12.6440 ha         1 91C       0.152000
     24 H2         -21.5030     2.8620    -8.8190 ha         1 91C       0.136000
     25 H3         -22.9410    -1.6070    -7.0480 hc         1 91C       0.090200
     26 H4         -21.4950    -2.6010    -6.9040 hc         1 91C       0.090200
     27 H5         -20.0430    -0.6320    -7.0390 h1         1 91C       0.062700
     28 H6         -23.3260     0.3320    -5.4370 ha         1 91C       0.139500
     29 H7         -19.2590    -0.9070    -4.8660 ha         1 91C       0.139500
     30 H8         -21.0170    -0.1190    -0.7210 ho         1 91C       0.485000
     31 H9         -21.5690     3.9060   -10.8570 ho         1 91C       0.476000
     32 H10        -21.8720    -2.2630   -11.0520 ho         1 91C       0.519000
@<TRIPOS>BOND
     1     1     2 ar  
     2     1     3 ar  
     3     1    23 1   
     4     2     6 ar  
     5     2    20 1   
     6     3     4 ar  
     7     3    19 1   
     8     4     5 ar  
     9     4    24 1   
    10     5     6 ar  
    11     5    16 1   
    12     6     7 1   
    13     7     8 1   
    14     7    17 2   
    15     8     9 1   
    16     8    25 1   
    17     8    26 1   
    18     9    10 1   
    19     9    16 1   
    20     9    27 1   
    21    10    11 ar  
    22    10    12 ar  
    23    11    15 ar  
    24    11    28 1   
    25    12    13 ar  
    26    12    29 1   
    27    13    14 ar  
    28    13    21 1   
    29    14    15 ar  
    30    14    18 1   
    31    15    22 1   
    32    18    30 1   
    33    19    31 1   
    34    20    32 1   
@<TRIPOS>SUBSTRUCTURE
     1 91C         1 TEMP              0 ****  ****    0 ROOT
