@<TRIPOS>MOLECULE
91D
   66    69     1     0     0
SMALL
abcg2


@<TRIPOS>ATOM
      1 C10         -0.4370     2.1710     0.1900 ca         1 91D      -0.045000
      2 C15         -4.7100    -0.2380     1.3290 c6         1 91D       0.091000
      3 C17         -6.5590     0.3620    -0.2390 c          1 91D       0.607100
      4 C21         -4.4120     1.5290    -0.2820 c6         1 91D       0.091000
      5 C22         -3.1410     0.8550    -0.7620 c6         1 91D       0.181800
      6 C24          0.4590    -1.8100     0.2370 ca         1 91D       0.421900
      7 C26          2.0440    -3.6840     0.2180 c3         1 91D       0.252800
      8 C28          3.3150    -5.8560     0.2520 c          1 91D       0.610100
      9 C02          3.4890     4.3990     0.5190 ca         1 91D       0.198000
     10 C03          4.5400     5.2730     0.3310 ca         1 91D      -0.156000
     11 C04          5.1480     5.3250    -0.9150 ca         1 91D      -0.076000
     12 C05          4.7040     4.5060    -1.9450 ca         1 91D      -0.130000
     13 C06          3.6460     3.6360    -1.7270 ca         1 91D      -0.065000
     14 C07          3.0120     3.5730    -0.4880 cp         1 91D      -0.089000
     15 C08          1.9030     2.6250    -0.2520 cp         1 91D       0.014000
     16 C09          0.5880     3.0630     0.0190 ca         1 91D       0.097000
     17 C11         -0.1940     0.7930     0.0880 ca         1 91D      -0.195000
     18 C12         -1.1970    -0.2310     0.2450 ca         1 91D       0.416900
     19 N13         -2.5250     0.0950     0.3270 nh         1 91D      -0.763300
     20 C14         -3.4360    -0.9130     0.8450 c6         1 91D       0.181800
     21 N16         -5.3180     0.5420     0.2720 n          1 91D      -0.419800
     22 C18         -7.4130    -0.7320     0.3760 c3         1 91D      -0.152400
     23 C19         -8.7850    -0.8440    -0.2650 c3         1 91D      -0.077100
     24 O20         -6.9840     1.0530    -1.1550 o          1 91D      -0.600100
     25 N23         -0.8530    -1.4820     0.3610 nb         1 91D      -0.320000
     26 N25          0.7290    -3.1150     0.3950 nu         1 91D      -0.932100
     27 C27          1.9680    -5.1840     0.4350 c3         1 91D      -0.179400
     28 N29          3.3390    -7.2020     0.3300 n          1 91D      -0.412800
     29 C30          4.5600    -7.9380     0.0820 c3         1 91D       0.085300
     30 C31          2.1670    -8.0250     0.5450 c3         1 91D       0.085300
     31 O32          4.3230    -5.1900     0.0460 o          1 91D      -0.597100
     32 N33          1.4440    -0.9860    -0.0450 nb         1 91D      -0.267000
     33 C34          1.1230     0.3250    -0.0960 ca         1 91D       0.091000
     34 C35          2.1470     1.2740    -0.3000 ca         1 91D      -0.097000
     35 CL36         0.2500     4.7600     0.1090 cl         1 91D      -0.194000
     36 H1          -1.4260     2.5360     0.4280 ha         1 91D       0.134000
     37 H2          -5.3880    -0.9980     1.7060 h1         1 91D       0.064200
     38 H3          -4.4700     0.4230     2.1670 h1         1 91D       0.064200
     39 H4          -4.1760     2.2750     0.4830 h1         1 91D       0.064200
     40 H5          -4.8890     2.0410    -1.1130 h1         1 91D       0.064200
     41 H6          -3.3840     0.1740    -1.5880 h1         1 91D       0.057950
     42 H7          -2.4590     1.6030    -1.1590 h1         1 91D       0.057950
     43 H8           2.4200    -3.4660    -0.7850 h1         1 91D       0.071700
     44 H9           2.7430    -3.2290     0.9230 h1         1 91D       0.071700
     45 H10          4.8810     5.8960     1.1480 ha         1 91D       0.133000
     46 H11          5.9740     6.0050    -1.0750 ha         1 91D       0.117000
     47 H12          5.1800     4.5440    -2.9150 ha         1 91D       0.120000
     48 H13          3.2950     2.9970    -2.5270 ha         1 91D       0.122000
     49 H14         -2.9700    -1.4270     1.6840 h1         1 91D       0.057950
     50 H15         -3.6750    -1.6670     0.0850 h1         1 91D       0.057950
     51 H16         -6.8890    -1.6880     0.2910 hc         1 91D       0.055200
     52 H17         -7.5190    -0.5460     1.4480 hc         1 91D       0.055200
     53 H18         -9.3480    -1.6450     0.2120 hc         1 91D       0.042700
     54 H19         -9.3600     0.0750    -0.1570 hc         1 91D       0.042700
     55 H20         -8.7170    -1.0740    -1.3280 hc         1 91D       0.042700
     56 H21         -0.0620    -3.7250     0.5240 hn         1 91D       0.501000
     57 H22          1.5920    -5.3970     1.4400 hc         1 91D       0.061700
     58 H23          1.2420    -5.6200    -0.2580 hc         1 91D       0.061700
     59 H24          4.8740    -8.4760     0.9790 h1         1 91D       0.042367
     60 H25          4.4020    -8.6700    -0.7120 h1         1 91D       0.042367
     61 H26          5.3570    -7.2670    -0.2200 h1         1 91D       0.042367
     62 H27          1.7370    -8.3720    -0.3970 h1         1 91D       0.042367
     63 H28          2.4510    -8.8990     1.1290 h1         1 91D       0.042367
     64 H29          1.3970    -7.5030     1.1050 h1         1 91D       0.042367
     65 H30          3.1540     0.9150    -0.4690 ha         1 91D       0.141000
     66 F01          2.9150     4.3270     1.7280 f          1 91D      -0.170000
@<TRIPOS>BOND
     1     1    16 ar  
     2     1    17 ar  
     3     1    36 1   
     4     2    20 1   
     5     2    21 1   
     6     2    37 1   
     7     2    38 1   
     8     3    21 1   
     9     3    22 1   
    10     3    24 2   
    11     4     5 1   
    12     4    21 1   
    13     4    39 1   
    14     4    40 1   
    15     5    19 1   
    16     5    41 1   
    17     5    42 1   
    18     6    25 ar  
    19     6    26 1   
    20     6    32 ar  
    21     7    26 1   
    22     7    27 1   
    23     7    43 1   
    24     7    44 1   
    25     8    27 1   
    26     8    28 1   
    27     8    31 2   
    28     9    10 ar  
    29     9    14 ar  
    30     9    66 1   
    31    10    11 ar  
    32    10    45 1   
    33    11    12 ar  
    34    11    46 1   
    35    12    13 ar  
    36    12    47 1   
    37    13    14 ar  
    38    13    48 1   
    39    14    15 1   
    40    15    16 ar  
    41    15    34 ar  
    42    16    35 1   
    43    17    18 ar  
    44    17    33 ar  
    45    18    19 1   
    46    18    25 ar  
    47    19    20 1   
    48    20    49 1   
    49    20    50 1   
    50    22    23 1   
    51    22    51 1   
    52    22    52 1   
    53    23    53 1   
    54    23    54 1   
    55    23    55 1   
    56    26    56 1   
    57    27    57 1   
    58    27    58 1   
    59    28    29 1   
    60    28    30 1   
    61    29    59 1   
    62    29    60 1   
    63    29    61 1   
    64    30    62 1   
    65    30    63 1   
    66    30    64 1   
    67    32    33 ar  
    68    33    34 ar  
    69    34    65 1   
@<TRIPOS>SUBSTRUCTURE
     1 91D         1 TEMP              0 ****  ****    0 ROOT
