@<TRIPOS>MOLECULE
91D
   66    69     1     0     0
SMALL
No Charge or Current Charge


@<TRIPOS>ATOM
      1 C10         -0.4130     2.2370    -0.0150 ca         1 91D      -0.045000
      2 C15         -4.7150     0.2100     1.3830 c6         1 91D       0.091000
      3 C17         -6.6060     0.0440    -0.3520 c          1 91D       0.607100
      4 C21         -4.4910     1.3930    -0.7730 c6         1 91D       0.091000
      5 C22         -3.1780     0.6210    -1.0750 c6         1 91D       0.181800
      6 C24          0.4850    -1.7480     0.1090 ca         1 91D       0.421900
      7 C26          2.0960    -3.7370     0.1030 c3         1 91D       0.252800
      8 C28          3.2750    -6.0270     0.1470 c          1 91D       0.610100
      9 C02          3.4080     4.6540     0.6900 ca         1 91D       0.198000
     10 C03          4.4750     5.5570     0.5570 ca         1 91D      -0.156000
     11 C04          5.2560     5.5560    -0.6110 ca         1 91D      -0.076000
     12 C05          4.9710     4.6450    -1.6410 ca         1 91D      -0.130000
     13 C06          3.9030     3.7400    -1.5070 ca         1 91D      -0.065000
     14 C07          3.0970     3.7350    -0.3440 cp         1 91D      -0.089000
     15 C08          1.9720     2.7630    -0.2160 cp         1 91D       0.014000
     16 C09          0.6190     3.1820    -0.1340 ca         1 91D       0.097000
     17 C11         -0.1180     0.8560     0.0130 ca         1 91D      -0.195000
     18 C12         -1.1210    -0.1340     0.1300 ca         1 91D       0.416900
     19 N13         -2.4960     0.1830     0.1810 nh         1 91D      -0.763300
     20 C14         -3.4000    -0.5710     1.1050 c6         1 91D       0.181800
     21 N16         -5.3940     0.6070     0.1140 n          1 91D      -0.419800
     22 C18         -7.4870    -0.7500     0.6350 c3         1 91D      -0.152400
     23 C19         -8.8790    -1.1720     0.1110 c3         1 91D      -0.077100
     24 O20         -6.9620     0.2150    -1.5120 o          1 91D      -0.600100
     25 N23         -0.8130    -1.4420     0.1850 nb         1 91D      -0.320000
     26 N25          0.7700    -3.1010     0.1650 nu         1 91D      -0.932100
     27 C27          1.9450    -5.2610     0.2020 c3         1 91D      -0.179400
     28 N29          3.2510    -7.4390     0.2330 n          1 91D      -0.412800
     29 C30          4.5150    -8.2090     0.1850 c3         1 91D       0.085300
     30 C31          1.9830    -8.1970     0.3690 c3         1 91D       0.085300
     31 O32          4.3400    -5.4330     0.0310 o          1 91D      -0.597100
     32 N33          1.5150    -0.8930    -0.0170 nb         1 91D      -0.267000
     33 C34          1.2240     0.4210    -0.0640 ca         1 91D       0.091000
     34 C35          2.2480     1.3760    -0.1850 ca         1 91D      -0.097000
     35 Cl36         0.1750     4.8880    -0.2170 cl         1 91D      -0.194000
     36 H1          -1.4380     2.5890     0.0560 ha         1 91D       0.134000
     37 H2          -5.3610    -0.3970     2.0290 h1         1 91D       0.064200
     38 H3          -4.4700     1.1200     1.9480 h1         1 91D       0.064200
     39 H4          -4.2410     2.3400    -0.2740 h1         1 91D       0.064200
     40 H5          -4.9870     1.6510    -1.7180 h1         1 91D       0.064200
     41 H6          -3.4170    -0.2560    -1.6930 h1         1 91D       0.057950
     42 H7          -2.5170     1.2670    -1.6710 h1         1 91D       0.057950
     43 H8           2.5970    -3.4790    -0.8420 h1         1 91D       0.071700
     44 H9           2.7290    -3.3780     0.9280 h1         1 91D       0.071700
     45 H10          4.6970     6.2530     1.3610 ha         1 91D       0.133000
     46 H11          6.0840     6.2560    -0.7150 ha         1 91D       0.117000
     47 H12          5.5780     4.6390    -2.5440 ha         1 91D       0.120000
     48 H13          3.6920     3.0390    -2.3120 ha         1 91D       0.122000
     49 H14         -2.8950    -0.7580     2.0640 h1         1 91D       0.057950
     50 H15         -3.6530    -1.5490     0.6690 h1         1 91D       0.057950
     51 H16         -6.9140    -1.6240     0.9670 hc         1 91D       0.055200
     52 H17         -7.5670    -0.1740     1.5630 hc         1 91D       0.055200
     53 H18         -9.4270    -1.7240     0.8830 hc         1 91D       0.042700
     54 H19         -9.4720    -0.2920    -0.1670 hc         1 91D       0.042700
     55 H20         -8.7840    -1.8190    -0.7690 hc         1 91D       0.042700
     56 H21         -0.0450    -3.7070     0.2560 hn         1 91D       0.501000
     57 H22          1.4160    -5.5600     1.1130 hc         1 91D       0.061700
     58 H23          1.2910    -5.6570    -0.5830 hc         1 91D       0.061700
     59 H24          5.1710    -7.8950     1.0080 h1         1 91D       0.042367
     60 H25          4.3250    -9.2860     0.2790 h1         1 91D       0.042367
     61 H26          5.0240    -8.0230    -0.7700 h1         1 91D       0.042367
     62 H27          1.3350    -7.9980    -0.4930 h1         1 91D       0.042367
     63 H28          2.1770    -9.2760     0.4150 h1         1 91D       0.042367
     64 H29          1.4660    -7.8990     1.2900 h1         1 91D       0.042367
     65 H30          3.2800     1.0410    -0.2460 ha         1 91D       0.141000
     66 F01          2.6920     4.6590     1.8380 f          1 91D      -0.170000
@<TRIPOS>BOND
     1     1    16 ar  
     2     1    17 ar  
     3     1    36 1   
     4     2    20 1   
     5     2    21 1   
     6     2    37 1   
     7     2    38 1   
     8     3    21 1   
     9     3    22 1   
    10     3    24 2   
    11     4     5 1   
    12     4    21 1   
    13     4    39 1   
    14     4    40 1   
    15     5    19 1   
    16     5    41 1   
    17     5    42 1   
    18     6    25 ar  
    19     6    26 1   
    20     6    32 ar  
    21     7    26 1   
    22     7    27 1   
    23     7    43 1   
    24     7    44 1   
    25     8    27 1   
    26     8    28 1   
    27     8    31 2   
    28     9    10 ar  
    29     9    14 ar  
    30     9    66 1   
    31    10    11 ar  
    32    10    45 1   
    33    11    12 ar  
    34    11    46 1   
    35    12    13 ar  
    36    12    47 1   
    37    13    14 ar  
    38    13    48 1   
    39    14    15 1   
    40    15    16 ar  
    41    15    34 ar  
    42    16    35 1   
    43    17    18 ar  
    44    17    33 ar  
    45    18    19 1   
    46    18    25 ar  
    47    19    20 1   
    48    20    49 1   
    49    20    50 1   
    50    22    23 1   
    51    22    51 1   
    52    22    52 1   
    53    23    53 1   
    54    23    54 1   
    55    23    55 1   
    56    26    56 1   
    57    27    57 1   
    58    27    58 1   
    59    28    29 1   
    60    28    30 1   
    61    29    59 1   
    62    29    60 1   
    63    29    61 1   
    64    30    62 1   
    65    30    63 1   
    66    30    64 1   
    67    32    33 ar  
    68    33    34 ar  
    69    34    65 1   
@<TRIPOS>SUBSTRUCTURE
     1 91D         1 TEMP              0 ****  ****    0 ROOT
