@<TRIPOS>MOLECULE
91E
   58    60     1     0     0
SMALL
abcg2


@<TRIPOS>ATOM
      1 CBC          6.4590    -0.9580    -2.5650 c3         1 91E      -0.047800
      2 CBB          7.0640    -0.1220    -1.4760 ca         1 91E      -0.073300
      3 CBD          8.3860     0.3040    -1.5520 ca         1 91E      -0.104000
      4 CBE          8.9410     1.0910    -0.5550 ca         1 91E      -0.099000
      5 CBF          8.1890     1.4580     0.5490 ca         1 91E      -0.101000
      6 CAB          6.8770     1.0230     0.6400 ca         1 91E       0.132000
      7 CL1          5.9510     1.4350     2.0390 cl         1 91E      -0.184000
      8 CAC          6.3030     0.2430    -0.3620 ca         1 91E      -0.040000
      9 NAD          4.9700    -0.1960    -0.2490 ns         1 91E      -0.169000
     10 CAE          3.9180     0.6540    -0.3770 c          1 91E       0.663700
     11 OBA          4.0590     1.8370    -0.6300 o          1 91E      -0.569100
     12 CAF          2.5840     0.0740    -0.1900 cc         1 91E      -0.333600
     13 SAZ          2.2370    -1.5310     0.3820 ss         1 91E      -0.110400
     14 CAG          1.4090     0.7210    -0.4220 cd         1 91E       0.400900
     15 NAH          0.2700     0.0260    -0.1910 nd         1 91E      -0.720000
     16 CAI          0.5370    -1.1760     0.2310 cc         1 91E       0.737300
     17 NAJ         -0.3600    -2.1290     0.5570 nu         1 91E      -0.920900
     18 CAK         -1.7520    -2.0530     0.5960 ca         1 91E       0.294000
     19 CAY         -2.4830    -0.9010     0.3190 ca         1 91E      -0.080000
     20 CAL         -2.4290    -3.2260     0.9460 ca         1 91E      -0.151000
     21 CAM         -3.8070    -3.2410     1.0210 ca         1 91E      -0.088000
     22 CAN         -4.5400    -2.0890     0.7670 ca         1 91E      -0.117000
     23 CAO         -3.8710    -0.9200     0.4240 ca         1 91E      -0.122600
     24 CAP         -4.6050     0.3490     0.1110 c          1 91E       0.611700
     25 OAX         -4.1670     1.1460    -0.7080 o          1 91E      -0.591100
     26 NAQ         -5.7450     0.5350     0.7970 ns         1 91E      -0.500900
     27 CAR         -6.6430     1.6500     0.6060 c3         1 91E       0.104000
     28 CAS         -7.9000     1.3120    -0.2140 c3         1 91E      -0.062000
     29 CAV         -7.5100     0.8850    -1.6270 c3         1 91E      -0.080100
     30 CAW         -8.6860     0.1960     0.4710 c3         1 91E      -0.080100
     31 CAT         -8.7380     2.5990    -0.2580 c3         1 91E       0.156800
     32 NAU         -9.9700     2.4430    -1.0150 n8         1 91E      -0.998200
     33 H1           6.2020    -1.9580    -2.2100 hc         1 91E       0.046033
     34 H2           5.5430    -0.5090    -2.9510 hc         1 91E       0.046033
     35 H3           7.1540    -1.0720    -3.3940 hc         1 91E       0.046033
     36 H4           8.9840     0.0210    -2.4090 ha         1 91E       0.117000
     37 H5           9.9690     1.4210    -0.6340 ha         1 91E       0.119000
     38 H6           8.6180     2.0660     1.3340 ha         1 91E       0.131000
     39 H7           4.8170    -1.1920    -0.1920 hn         1 91E       0.159000
     40 H8           1.3450     1.7380    -0.7810 h4         1 91E       0.065100
     41 H9           0.0200    -3.0210     0.8360 hn         1 91E       0.506000
     42 H10         -1.9800     0.0080     0.0320 ha         1 91E       0.174000
     43 H11         -1.8690    -4.1300     1.1570 ha         1 91E       0.111000
     44 H12         -4.3160    -4.1600     1.2790 ha         1 91E       0.118000
     45 H13         -5.6210    -2.1280     0.8100 ha         1 91E       0.118000
     46 H14         -5.9600    -0.1060     1.5430 hn         1 91E       0.313500
     47 H15         -6.9420     2.0080     1.5950 h1         1 91E       0.054700
     48 H16         -6.0900     2.4590     0.1260 h1         1 91E       0.054700
     49 H17         -6.8820    -0.0070    -1.6150 hc         1 91E       0.036867
     50 H18         -8.3930     0.6400    -2.2210 hc         1 91E       0.036867
     51 H19         -6.9600     1.6720    -2.1480 hc         1 91E       0.036867
     52 H20         -8.9620     0.4730     1.4910 hc         1 91E       0.036867
     53 H21         -9.6040    -0.0200    -0.0740 hc         1 91E       0.036867
     54 H22         -8.1090    -0.7300     0.5200 hc         1 91E       0.036867
     55 H23         -9.0090     2.8690     0.7670 h1         1 91E       0.027200
     56 H24         -8.1030     3.4150    -0.6350 h1         1 91E       0.027200
     57 H25        -10.5670     3.2410    -0.8440 hn         1 91E       0.394000
     58 H26         -9.7680     2.4650    -2.0060 hn         1 91E       0.394000
@<TRIPOS>BOND
     1     1     2 1   
     2     1    33 1   
     3     1    34 1   
     4     1    35 1   
     5     2     3 ar  
     6     2     8 ar  
     7     3     4 ar  
     8     3    36 1   
     9     4     5 ar  
    10     4    37 1   
    11     5     6 ar  
    12     5    38 1   
    13     6     7 1   
    14     6     8 ar  
    15     8     9 1   
    16     9    10 1   
    17     9    39 1   
    18    10    11 2   
    19    10    12 1   
    20    12    13 1   
    21    12    14 2   
    22    13    16 1   
    23    14    15 1   
    24    14    40 1   
    25    15    16 2   
    26    16    17 1   
    27    17    18 1   
    28    17    41 1   
    29    18    19 ar  
    30    18    20 ar  
    31    19    23 ar  
    32    19    42 1   
    33    20    21 ar  
    34    20    43 1   
    35    21    22 ar  
    36    21    44 1   
    37    22    23 ar  
    38    22    45 1   
    39    23    24 1   
    40    24    25 2   
    41    24    26 1   
    42    26    27 1   
    43    26    46 1   
    44    27    28 1   
    45    27    47 1   
    46    27    48 1   
    47    28    29 1   
    48    28    30 1   
    49    28    31 1   
    50    29    49 1   
    51    29    50 1   
    52    29    51 1   
    53    30    52 1   
    54    30    53 1   
    55    30    54 1   
    56    31    32 1   
    57    31    55 1   
    58    31    56 1   
    59    32    57 1   
    60    32    58 1   
@<TRIPOS>SUBSTRUCTURE
     1 91E         1 TEMP              0 ****  ****    0 ROOT
