@<TRIPOS>MOLECULE
91E
   58    60     1     0     0
SMALL
No Charge or Current Charge


@<TRIPOS>ATOM
      1 CBC          6.0100    -0.6570    -2.9410 c3         1 91E      -0.047800
      2 CBB          6.8960    -0.1180    -1.8200 ca         1 91E      -0.073300
      3 CBD          8.2710     0.0740    -2.0580 ca         1 91E      -0.104000
      4 CBE          9.1080     0.5700    -1.0450 ca         1 91E      -0.099000
      5 CBF          8.5750     0.8660     0.2190 ca         1 91E      -0.101000
      6 CAB          7.2060     0.6820     0.4710 ca         1 91E       0.132000
      7 Cl1          6.6170     0.9860     2.1070 cl         1 91E      -0.184000
      8 CAC          6.3520     0.2040    -0.5540 ca         1 91E      -0.040000
      9 NAD          4.9630     0.0060    -0.3320 ns         1 91E      -0.169000
     10 CAE          4.0010     0.8950     0.1120 c          1 91E       0.663700
     11 OBA          4.2210     2.0800     0.3270 o          1 91E      -0.569100
     12 CAF          2.6770     0.2800     0.2740 cc         1 91E      -0.333600
     13 SAZ          2.2820    -1.3920    -0.0290 ss         1 91E      -0.110400
     14 CAG          1.5830     0.9930     0.6960 cd         1 91E       0.400900
     15 NAH          0.4130     0.2490     0.7900 nd         1 91E      -0.720000
     16 CAI          0.6490    -0.9930     0.4300 cc         1 91E       0.737300
     17 NAJ         -0.3510    -1.9170     0.4670 nu         1 91E      -0.920900
     18 CAK         -1.6940    -1.8590     0.8440 ca         1 91E       0.294000
     19 CAY         -2.5100    -0.7550     0.5320 ca         1 91E      -0.080000
     20 CAL         -2.2510    -2.9550     1.5190 ca         1 91E      -0.151000
     21 CAM         -3.6020    -2.9430     1.8990 ca         1 91E      -0.088000
     22 CAN         -4.4110    -1.8350     1.5990 ca         1 91E      -0.117000
     23 CAO         -3.8750    -0.7210     0.9060 ca         1 91E      -0.122600
     24 CAP         -4.7110     0.4920     0.5470 c          1 91E       0.611700
     25 OAX         -4.2500     1.4370    -0.0790 o          1 91E      -0.591100
     26 NAQ         -6.0270     0.4770     0.9610 ns         1 91E      -0.500900
     27 CAR         -7.0190     1.5230     0.6730 c3         1 91E       0.104000
     28 CAS         -7.9890     1.1810    -0.5010 c3         1 91E      -0.062000
     29 CAV         -7.1850     0.9850    -1.8210 c3         1 91E      -0.080100
     30 CAW         -8.7700    -0.1250    -0.1720 c3         1 91E      -0.080100
     31 CAT         -8.9760     2.3840    -0.6410 c3         1 91E       0.156800
     32 NAU         -9.9800     2.2270    -1.7150 n8         1 91E      -0.998200
     33 H1           5.5450    -1.6070    -2.6540 hc         1 91E       0.046033
     34 H2           5.2080     0.0510    -3.1840 hc         1 91E       0.046033
     35 H3           6.5790    -0.8350    -3.8610 hc         1 91E       0.046033
     36 H4           8.6970    -0.1610    -3.0310 ha         1 91E       0.117000
     37 H5          10.1690     0.7130    -1.2360 ha         1 91E       0.119000
     38 H6           9.2270     1.2290     1.0100 ha         1 91E       0.131000
     39 H7           4.6250    -0.9250    -0.5350 hn         1 91E       0.159000
     40 H8           1.5690     2.0470     0.9520 h4         1 91E       0.065100
     41 H9           0.0290    -2.8570     0.4020 hn         1 91E       0.506000
     42 H10         -2.0810     0.0790    -0.0140 ha         1 91E       0.174000
     43 H11         -1.6360    -3.8190     1.7570 ha         1 91E       0.111000
     44 H12         -4.0240    -3.7950     2.4270 ha         1 91E       0.118000
     45 H13         -5.4530    -1.8630     1.9070 ha         1 91E       0.118000
     46 H14         -6.3290    -0.3350     1.4820 hn         1 91E       0.313500
     47 H15         -7.6060     1.6870     1.5860 h1         1 91E       0.054700
     48 H16         -6.4990     2.4650     0.4540 h1         1 91E       0.054700
     49 H17         -6.4800     0.1490    -1.7360 hc         1 91E       0.036867
     50 H18         -7.8490     0.7620    -2.6650 hc         1 91E       0.036867
     51 H19         -6.6130     1.8870    -2.0680 hc         1 91E       0.036867
     52 H20         -9.3410    -0.0150     0.7580 hc         1 91E       0.036867
     53 H21         -9.4750    -0.3810    -0.9720 hc         1 91E       0.036867
     54 H22         -8.0900    -0.9770    -0.0530 hc         1 91E       0.036867
     55 H23         -9.5120     2.5300     0.3070 h1         1 91E       0.027200
     56 H24         -8.4030     3.3000    -0.8450 h1         1 91E       0.027200
     57 H25        -10.5220     3.0960    -1.7970 hn         1 91E       0.394000
     58 H26         -9.4930     2.1590    -2.6150 hn         1 91E       0.394000
@<TRIPOS>BOND
     1     1     2 1   
     2     1    33 1   
     3     1    34 1   
     4     1    35 1   
     5     2     3 ar  
     6     2     8 ar  
     7     3     4 ar  
     8     3    36 1   
     9     4     5 ar  
    10     4    37 1   
    11     5     6 ar  
    12     5    38 1   
    13     6     7 1   
    14     6     8 ar  
    15     8     9 1   
    16     9    10 1   
    17     9    39 1   
    18    10    11 2   
    19    10    12 1   
    20    12    13 1   
    21    12    14 2   
    22    13    16 1   
    23    14    15 1   
    24    14    40 1   
    25    15    16 2   
    26    16    17 1   
    27    17    18 1   
    28    17    41 1   
    29    18    19 ar  
    30    18    20 ar  
    31    19    23 ar  
    32    19    42 1   
    33    20    21 ar  
    34    20    43 1   
    35    21    22 ar  
    36    21    44 1   
    37    22    23 ar  
    38    22    45 1   
    39    23    24 1   
    40    24    25 2   
    41    24    26 1   
    42    26    27 1   
    43    26    46 1   
    44    27    28 1   
    45    27    47 1   
    46    27    48 1   
    47    28    29 1   
    48    28    30 1   
    49    28    31 1   
    50    29    49 1   
    51    29    50 1   
    52    29    51 1   
    53    30    52 1   
    54    30    53 1   
    55    30    54 1   
    56    31    32 1   
    57    31    55 1   
    58    31    56 1   
    59    32    57 1   
    60    32    58 1   
@<TRIPOS>SUBSTRUCTURE
     1 91E         1 TEMP              0 ****  ****    0 ROOT
