@<TRIPOS>MOLECULE
91F
   31    33     1     0     0
SMALL
abcg2


@<TRIPOS>ATOM
      1 O           -2.9250    -2.7820     0.4390 o          1 91F      -0.539000
      2 C14         -2.5180    -1.6460     0.2750 c          1 91F       0.578600
      3 N1          -1.1690    -1.3670     0.2750 ns         1 91F      -0.428400
      4 C7          -0.6330    -0.1230     0.0930 cc         1 91F       0.566500
      5 C4           0.8330    -0.0010     0.1060 ca         1 91F      -0.163900
      6 C5           1.4090     1.2420     0.3820 ca         1 91F      -0.057000
      7 C6           2.7780     1.3990     0.4010 ca         1 91F      -0.121500
      8 C1           3.6220     0.3140     0.1340 ca         1 91F      -0.073000
      9 S            5.3450     0.6240     0.1790 ss         1 91F      -0.139000
     10 C            6.0820    -0.9660    -0.2350 c3         1 91F       0.014900
     11 C2           3.0550    -0.9250    -0.1490 ca         1 91F      -0.121500
     12 C3           1.6770    -1.0760    -0.1590 ca         1 91F      -0.057000
     13 N           -1.3580     0.9260    -0.0810 nd         1 91F      -0.633100
     14 C8          -2.7220     0.7800    -0.0840 ca         1 91F       0.192400
     15 C13         -3.3490    -0.4660     0.0780 ca         1 91F      -0.205600
     16 C9          -3.5210     1.9190    -0.2640 ca         1 91F      -0.106000
     17 C10         -4.8940     1.8070    -0.2770 ca         1 91F      -0.074000
     18 C11         -5.5120     0.5620    -0.1120 ca         1 91F      -0.134000
     19 C12         -4.7430    -0.5670     0.0650 ca         1 91F      -0.039000
     20 H1          -0.5550    -2.1500     0.4570 hn         1 91F       0.330500
     21 H5           0.7730     2.0920     0.5910 ha         1 91F       0.126500
     22 H3           1.2850    -2.0540    -0.4100 ha         1 91F       0.126500
     23 H6           3.1970     2.3710     0.6290 ha         1 91F       0.124500
     24 H2           3.6700    -1.7860    -0.3690 ha         1 91F       0.124500
     25 HC1          5.7840    -1.3020    -1.2270 h1         1 91F       0.068367
     26 HC2          7.1580    -0.8030    -0.2330 h1         1 91F       0.068367
     27 HC3          5.8440    -1.7260     0.5060 h1         1 91F       0.068367
     28 H9          -3.0390     2.8790    -0.3930 ha         1 91F       0.132000
     29 H12         -5.2100    -1.5340     0.1960 ha         1 91F       0.135000
     30 H10         -5.5020     2.6910    -0.4170 ha         1 91F       0.117000
     31 H11         -6.5910     0.4880    -0.1230 ha         1 91F       0.119000
@<TRIPOS>BOND
     1     1     2 2   
     2     2     3 1   
     3     2    15 1   
     4     3     4 1   
     5     3    20 1   
     6     4     5 1   
     7     4    13 2   
     8     5     6 ar  
     9     5    12 ar  
    10     6     7 ar  
    11     6    21 1   
    12     7     8 ar  
    13     7    23 1   
    14     8     9 1   
    15     8    11 ar  
    16     9    10 1   
    17    10    25 1   
    18    10    26 1   
    19    10    27 1   
    20    11    12 ar  
    21    11    24 1   
    22    12    22 1   
    23    13    14 1   
    24    14    15 ar  
    25    14    16 ar  
    26    15    19 ar  
    27    16    17 ar  
    28    16    28 1   
    29    17    18 ar  
    30    17    30 1   
    31    18    19 ar  
    32    18    31 1   
    33    19    29 1   
@<TRIPOS>SUBSTRUCTURE
     1 91F         1 TEMP              0 ****  ****    0 ROOT
