@<TRIPOS>MOLECULE
91F
   31    33     1     0     0
SMALL
No Charge or Current Charge


@<TRIPOS>ATOM
      1 O           -2.8560    -2.7460     0.5670 o          1 91F      -0.539000
      2 C14         -2.4650    -1.6090     0.3580 c          1 91F       0.578600
      3 N1          -1.1520    -1.2970     0.3430 ns         1 91F      -0.428400
      4 C7          -0.6410    -0.0470     0.1130 cc         1 91F       0.566500
      5 C4           0.8280     0.0630     0.1520 ca         1 91F      -0.163900
      6 C5           1.4440     1.2860     0.5020 ca         1 91F      -0.057000
      7 C6           2.8440     1.4110     0.5080 ca         1 91F      -0.121500
      8 C1           3.6610     0.3280     0.1480 ca         1 91F      -0.073000
      9 S            5.4430     0.5650     0.1770 ss         1 91F      -0.139000
     10 C            6.1770    -1.0710    -0.2650 c3         1 91F       0.014900
     11 C2           3.0580    -0.8870    -0.2320 ca         1 91F      -0.121500
     12 C3           1.6580    -1.0160    -0.2370 ca         1 91F      -0.057000
     13 N           -1.3900     1.0380    -0.1000 nd         1 91F      -0.633100
     14 C8          -2.7760     0.8090    -0.1050 ca         1 91F       0.192400
     15 C13         -3.3590    -0.4550     0.1070 ca         1 91F      -0.205600
     16 C9          -3.6170     1.9130    -0.3370 ca         1 91F      -0.106000
     17 C10         -5.0150     1.7650    -0.3600 ca         1 91F      -0.074000
     18 C11         -5.5870     0.5020    -0.1490 ca         1 91F      -0.134000
     19 C12         -4.7620    -0.6090     0.0850 ca         1 91F      -0.039000
     20 H1          -0.5170    -2.0540     0.5380 hn         1 91F       0.330500
     21 H5           0.8410     2.1470     0.7850 ha         1 91F       0.126500
     22 H3           1.2290    -1.9620    -0.5620 ha         1 91F       0.126500
     23 H6           3.2950     2.3590     0.7920 ha         1 91F       0.124500
     24 H2           3.6560    -1.7420    -0.5340 ha         1 91F       0.124500
     25 HC1          5.8590    -1.3620    -1.2740 h1         1 91F       0.068367
     26 HC2          7.2710    -0.9980    -0.2430 h1         1 91F       0.068367
     27 HC3          5.8540    -1.8310     0.4570 h1         1 91F       0.068367
     28 H9          -3.1800     2.8940    -0.5020 ha         1 91F       0.132000
     29 H12         -5.2130    -1.5870     0.2500 ha         1 91F       0.135000
     30 H10         -5.6500     2.6290    -0.5420 ha         1 91F       0.117000
     31 H11         -6.6680     0.3840    -0.1660 ha         1 91F       0.119000
@<TRIPOS>BOND
     1     1     2 2   
     2     2     3 1   
     3     2    15 1   
     4     3     4 1   
     5     3    20 1   
     6     4     5 1   
     7     4    13 2   
     8     5     6 ar  
     9     5    12 ar  
    10     6     7 ar  
    11     6    21 1   
    12     7     8 ar  
    13     7    23 1   
    14     8     9 1   
    15     8    11 ar  
    16     9    10 1   
    17    10    25 1   
    18    10    26 1   
    19    10    27 1   
    20    11    12 ar  
    21    11    24 1   
    22    12    22 1   
    23    13    14 1   
    24    14    15 ar  
    25    14    16 ar  
    26    15    19 ar  
    27    16    17 ar  
    28    16    28 1   
    29    17    18 ar  
    30    17    30 1   
    31    18    19 ar  
    32    18    31 1   
    33    19    29 1   
@<TRIPOS>SUBSTRUCTURE
     1 91F         1 TEMP              0 ****  ****    0 ROOT
