@<TRIPOS>MOLECULE
91G
   73    77     1     0     0
SMALL
No Charge or Current Charge


@<TRIPOS>ATOM
      1 N12         -2.2180    -1.9180    -0.1000 nh         1 91G      -0.765300
      2 C13         -2.4010    -2.6770     1.1750 c6         1 91G       0.182300
      3 C17         -3.3690    -2.0750    -1.0430 c6         1 91G       0.182300
      4 C24         -3.0540     5.0510    -0.3550 c3         1 91G      -0.180400
      5 C28         -3.3930     8.9450    -0.4780 c3         1 91G       0.086800
      6 C02          2.0940    -1.7460     0.3030 ca         1 91G       0.086000
      7 C03          2.7290    -0.4800     0.3610 cp         1 91G       0.001000
      8 C04          1.9250     0.6800     0.2760 ca         1 91G      -0.099000
      9 C05          0.5290     0.6010     0.1280 ca         1 91G       0.092000
     10 C06         -0.0870    -0.6690     0.0770 ca         1 91G      -0.199000
     11 C07          0.7010    -1.8380     0.1570 ca         1 91G      -0.046000
     12 N08         -0.2130     1.7210     0.0290 nb         1 91G      -0.267000
     13 C09         -1.5400     1.5680    -0.1210 ca         1 91G       0.423900
     14 N10         -2.2190     0.4190    -0.1760 nb         1 91G      -0.322000
     15 C11         -1.4940    -0.7080    -0.0700 ca         1 91G       0.419900
     16 C14         -2.7510    -4.1670     0.9100 c6         1 91G       0.091000
     17 N15         -3.9250    -4.2980     0.0020 n          1 91G      -0.418800
     18 C16         -3.7140    -3.5710    -1.2840 c6         1 91G       0.091000
     19 C18         -5.1810    -4.7620     0.4600 c          1 91G       0.607100
     20 C19         -6.3450    -4.8750    -0.5470 c3         1 91G      -0.152400
     21 O21         -5.3290    -5.1010     1.6280 o          1 91G      -0.600100
     22 C23         -1.8540     4.1060    -0.2010 c3         1 91G       0.253800
     23 C25         -2.6840     6.5420    -0.3400 c          1 91G       0.604100
     24 N26         -3.7160     7.5000    -0.4850 n          1 91G      -0.407800
     25 C27         -5.1380     7.1070    -0.6340 c3         1 91G       0.086800
     26 O29         -1.5210     6.9010    -0.2070 o          1 91G      -0.594100
     27 C30          4.2060    -0.3490     0.5180 cp         1 91G       0.009000
     28 C31          4.7270     0.0850     1.7600 ca         1 91G      -0.168000
     29 C32          6.1080     0.2160     1.9590 ca         1 91G       0.137100
     30 O33          6.5930     0.6290     3.1640 oh         1 91G      -0.533100
     31 C34          6.9970    -0.0780     0.9180 ca         1 91G      -0.143000
     32 C35          6.5090    -0.5000    -0.3310 ca         1 91G       0.001000
     33 C36          5.1150    -0.6340    -0.5420 ca         1 91G      -0.048000
     34 C37          4.6540    -1.0430    -1.8140 ca         1 91G      -0.080000
     35 C38          5.5640    -1.3240    -2.8480 ca         1 91G      -0.119000
     36 C39          6.9440    -1.1960    -2.6270 ca         1 91G      -0.097000
     37 C40          7.4150    -0.7830    -1.3710 ca         1 91G      -0.109000
     38 H1          -1.4900    -2.6320     1.7890 h1         1 91G       0.058200
     39 H2          -3.2110    -2.2230     1.7650 h1         1 91G       0.058200
     40 H3          -4.2580    -1.5660    -0.6400 h1         1 91G       0.058200
     41 H4          -3.1340    -1.6100    -2.0120 h1         1 91G       0.058200
     42 H5          -7.4110    -6.5960     0.2880 hc         1 91G       0.043033
     43 H6          -8.0420    -5.0220     0.8300 hc         1 91G       0.043033
     44 H7          -8.3890    -5.6020    -0.8120 hc         1 91G       0.043033
     45 H8          -3.6180     4.8480    -1.2720 hc         1 91G       0.061700
     46 H9          -3.8090     4.8790     0.4200 hc         1 91G       0.061700
     47 H10         -2.6760     9.1680    -1.2790 h1         1 91G       0.041533
     48 H11         -4.2950     9.5500    -0.6360 h1         1 91G       0.041533
     49 H12         -2.9490     9.2190     0.4870 h1         1 91G       0.041533
     50 H13          2.4010     1.6570     0.3180 ha         1 91G       0.144000
     51 H14          0.2450    -2.8230     0.1010 ha         1 91G       0.134000
     52 H15         -1.8850    -4.6580     0.4420 h1         1 91G       0.064450
     53 H16         -2.9280    -4.6750     1.8670 h1         1 91G       0.064450
     54 H17         -4.5860    -3.6340    -1.9460 h1         1 91G       0.064450
     55 H18         -2.8780    -4.0430    -1.8190 h1         1 91G       0.064450
     56 H19         -5.9690    -5.3620    -1.4540 hc         1 91G       0.054700
     57 H20         -6.5690    -3.8670    -0.9150 hc         1 91G       0.054700
     58 H21         -3.3150     2.5390    -0.3370 hn         1 91G       0.501000
     59 H22         -1.1390     4.2870    -1.0180 h1         1 91G       0.072200
     60 H23         -1.3410     4.3190     0.7480 h1         1 91G       0.072200
     61 H24         -5.7790     7.9930    -0.7200 h1         1 91G       0.041533
     62 H25         -5.2640     6.4990    -1.5390 h1         1 91G       0.041533
     63 H26         -5.4600     6.5300     0.2410 h1         1 91G       0.041533
     64 H27          4.0380     0.3100     2.5710 ha         1 91G       0.118000
     65 H28          5.8370     0.7870     3.7680 ho         1 91G       0.466000
     66 H29          8.0660     0.0260     1.0820 ha         1 91G       0.130000
     67 H30          3.5910    -1.1460    -2.0150 ha         1 91G       0.119000
     68 H31          5.1970    -1.6390    -3.8220 ha         1 91G       0.113000
     69 H32          7.6460    -1.4140    -3.4290 ha         1 91G       0.112000
     70 H33          8.4860    -0.6820    -1.2080 ha         1 91G       0.114000
     71 N22         -2.3150     2.7090    -0.2290 nu         1 91G      -0.933100
     72 C20         -7.6260    -5.5670    -0.0260 c3         1 91G      -0.077100
     73 Cl01         3.0230    -3.2400     0.4260 cl         1 91G      -0.190000
@<TRIPOS>BOND
     1     1     2 1   
     2     1     3 1   
     3     1    15 1   
     4     2    16 1   
     5     2    38 1   
     6     2    39 1   
     7     3    18 1   
     8     3    40 1   
     9     3    41 1   
    10     4    22 1   
    11     4    23 1   
    12     4    45 1   
    13     4    46 1   
    14     5    24 1   
    15     5    47 1   
    16     5    48 1   
    17     5    49 1   
    18     6     7 ar  
    19     6    11 ar  
    20     6    73 1   
    21     7     8 ar  
    22     7    27 1   
    23     8     9 ar  
    24     8    50 1   
    25     9    10 ar  
    26     9    12 ar  
    27    10    11 ar  
    28    10    15 ar  
    29    11    51 1   
    30    12    13 ar  
    31    13    14 ar  
    32    13    71 1   
    33    14    15 ar  
    34    16    17 1   
    35    16    52 1   
    36    16    53 1   
    37    17    18 1   
    38    17    19 1   
    39    18    54 1   
    40    18    55 1   
    41    19    20 1   
    42    19    21 2   
    43    20    56 1   
    44    20    57 1   
    45    20    72 1   
    46    22    59 1   
    47    22    60 1   
    48    22    71 1   
    49    23    24 1   
    50    23    26 2   
    51    24    25 1   
    52    25    61 1   
    53    25    62 1   
    54    25    63 1   
    55    27    28 ar  
    56    27    33 ar  
    57    28    29 ar  
    58    28    64 1   
    59    29    30 1   
    60    29    31 ar  
    61    30    65 1   
    62    31    32 ar  
    63    31    66 1   
    64    32    33 ar  
    65    32    37 ar  
    66    33    34 ar  
    67    34    35 ar  
    68    34    67 1   
    69    35    36 ar  
    70    35    68 1   
    71    36    37 ar  
    72    36    69 1   
    73    37    70 1   
    74    42    72 1   
    75    43    72 1   
    76    44    72 1   
    77    58    71 1   
@<TRIPOS>SUBSTRUCTURE
     1 91G         1 TEMP              0 ****  ****    0 ROOT
