@<TRIPOS>MOLECULE
91G
   73    77     1     0     0
SMALL
abcg2


@<TRIPOS>ATOM
      1 N12         -2.3260    -1.9210    -0.2060 nh         1 91G      -0.765300
      2 C13         -2.1920    -2.8830     0.8890 c6         1 91G       0.182300
      3 C17         -3.6930    -1.8750    -0.7020 c6         1 91G       0.182300
      4 C24         -2.9490     4.9670    -0.5390 c3         1 91G      -0.180400
      5 C28         -3.0140     8.7490    -0.7410 c3         1 91G       0.086800
      6 C02          1.9760    -1.7720     0.0970 ca         1 91G       0.086000
      7 C03          2.5780    -0.5270     0.3730 cp         1 91G       0.001000
      8 C04          1.7870     0.5960     0.3930 ca         1 91G      -0.099000
      9 C05          0.3960     0.5270     0.1650 ca         1 91G       0.092000
     10 C06         -0.1920    -0.7440    -0.0050 ca         1 91G      -0.199000
     11 C07          0.6240    -1.8820    -0.0920 ca         1 91G      -0.046000
     12 N08         -0.3130     1.6740     0.0850 nb         1 91G      -0.267000
     13 C09         -1.5900     1.5430    -0.2030 ca         1 91G       0.423900
     14 N10         -2.2770     0.3760    -0.2960 nb         1 91G      -0.322000
     15 C11         -1.6250    -0.7450    -0.1580 ca         1 91G       0.419900
     16 C14         -2.5980    -4.2680     0.4230 c6         1 91G       0.091000
     17 N15         -3.9490    -4.2360    -0.1010 n          1 91G      -0.418800
     18 C16         -4.1090    -3.2640    -1.1630 c6         1 91G       0.091000
     19 C18         -4.9390    -4.9660     0.4640 c          1 91G       0.607100
     20 C19         -6.3360    -4.8080    -0.1080 c3         1 91G      -0.152400
     21 O21         -4.7230    -5.7280     1.3970 o          1 91G      -0.600100
     22 C23         -1.8060     3.9890    -0.3250 c3         1 91G       0.253800
     23 C25         -2.4820     6.4090    -0.5160 c          1 91G       0.604100
     24 N26         -3.4270     7.3620    -0.6560 n          1 91G      -0.407800
     25 C27         -4.7990     7.0720    -1.0200 c3         1 91G       0.086800
     26 O29         -1.2970     6.6850    -0.3690 o          1 91G      -0.594100
     27 C30          4.0330    -0.4140     0.6320 cp         1 91G       0.009000
     28 C31          4.4670    -0.2990     1.9250 ca         1 91G      -0.168000
     29 C32          5.8450    -0.1910     2.2230 ca         1 91G       0.137100
     30 O33          6.2770    -0.0850     3.4930 oh         1 91G      -0.533100
     31 C34          6.7660    -0.1960     1.2070 ca         1 91G      -0.143000
     32 C35          6.3450    -0.3010    -0.1350 ca         1 91G       0.001000
     33 C36          4.9630    -0.4090    -0.4420 ca         1 91G      -0.048000
     34 C37          4.5640    -0.5000    -1.7960 ca         1 91G      -0.080000
     35 C38          5.4900    -0.4900    -2.8020 ca         1 91G      -0.119000
     36 C39          6.8640    -0.3910    -2.4990 ca         1 91G      -0.097000
     37 C40          7.2800    -0.2970    -1.1990 ca         1 91G      -0.109000
     38 H1          -1.1760    -2.9060     1.2730 h1         1 91G       0.058200
     39 H2          -2.8380    -2.5760     1.7220 h1         1 91G       0.058200
     40 H3          -4.3840    -1.5160     0.0700 h1         1 91G       0.058200
     41 H4          -3.7530    -1.1890    -1.5440 h1         1 91G       0.058200
     42 H5          -7.1170    -6.7600     0.4440 hc         1 91G       0.043033
     43 H6          -7.4310    -5.5010     1.6370 hc         1 91G       0.043033
     44 H7          -8.3410    -5.5350     0.1310 hc         1 91G       0.043033
     45 H8          -3.4360     4.7590    -1.4980 hc         1 91G       0.061700
     46 H9          -3.7110     4.8110     0.2300 hc         1 91G       0.061700
     47 H10         -2.7070     9.0240    -1.7530 h1         1 91G       0.041533
     48 H11         -3.8500     9.3860    -0.4560 h1         1 91G       0.041533
     49 H12         -2.1880     8.9500    -0.0650 h1         1 91G       0.041533
     50 H13          2.2330     1.5670     0.5640 ha         1 91G       0.144000
     51 H14          0.1990    -2.8470    -0.3330 ha         1 91G       0.134000
     52 H15         -1.9140    -4.6120    -0.3590 h1         1 91G       0.064450
     53 H16         -2.5390    -4.9660     1.2530 h1         1 91G       0.064450
     54 H17         -5.1370    -3.2250    -1.5120 h1         1 91G       0.064450
     55 H18         -3.4920    -3.5630    -2.0160 h1         1 91G       0.064450
     56 H19         -6.3160    -5.0150    -1.1820 hc         1 91G       0.054700
     57 H20         -6.6430    -3.7630    -0.0140 hc         1 91G       0.054700
     58 H21         -3.3140     2.5050    -0.5520 hn         1 91G       0.501000
     59 H22         -1.0330     4.1320    -1.0830 h1         1 91G       0.072200
     60 H23         -1.3360     4.1620     0.6460 h1         1 91G       0.072200
     61 H24         -5.4420     7.8700    -0.6520 h1         1 91G       0.041533
     62 H25         -4.9320     7.0020    -2.1030 h1         1 91G       0.041533
     63 H26         -5.1470     6.1460    -0.5700 h1         1 91G       0.041533
     64 H27          3.7440    -0.3000     2.7340 ha         1 91G       0.118000
     65 H28          5.5340    -0.0970     4.1070 ho         1 91G       0.466000
     66 H29          7.8240    -0.1150     1.4300 ha         1 91G       0.130000
     67 H30          3.5100    -0.5700    -2.0380 ha         1 91G       0.119000
     68 H31          5.1720    -0.5600    -3.8340 ha         1 91G       0.113000
     69 H32          7.5900    -0.3850    -3.3010 ha         1 91G       0.112000
     70 H33          8.3350    -0.2180    -0.9690 ha         1 91G       0.114000
     71 N22         -2.3300     2.6450    -0.3980 nu         1 91G      -0.933100
     72 C20         -7.3580    -5.7050     0.5690 c3         1 91G      -0.077100
     73 CL01         2.9630    -3.1920    -0.0040 cl         1 91G      -0.190000
@<TRIPOS>BOND
     1     1     2 1   
     2     1     3 1   
     3     1    15 1   
     4     2    16 1   
     5     2    38 1   
     6     2    39 1   
     7     3    18 1   
     8     3    40 1   
     9     3    41 1   
    10     4    22 1   
    11     4    23 1   
    12     4    45 1   
    13     4    46 1   
    14     5    24 1   
    15     5    47 1   
    16     5    48 1   
    17     5    49 1   
    18     6     7 ar  
    19     6    11 ar  
    20     6    73 1   
    21     7     8 ar  
    22     7    27 1   
    23     8     9 ar  
    24     8    50 1   
    25     9    10 ar  
    26     9    12 ar  
    27    10    11 ar  
    28    10    15 ar  
    29    11    51 1   
    30    12    13 ar  
    31    13    14 ar  
    32    13    71 1   
    33    14    15 ar  
    34    16    17 1   
    35    16    52 1   
    36    16    53 1   
    37    17    18 1   
    38    17    19 1   
    39    18    54 1   
    40    18    55 1   
    41    19    20 1   
    42    19    21 2   
    43    20    56 1   
    44    20    57 1   
    45    20    72 1   
    46    22    59 1   
    47    22    60 1   
    48    22    71 1   
    49    23    24 1   
    50    23    26 2   
    51    24    25 1   
    52    25    61 1   
    53    25    62 1   
    54    25    63 1   
    55    27    28 ar  
    56    27    33 ar  
    57    28    29 ar  
    58    28    64 1   
    59    29    30 1   
    60    29    31 ar  
    61    30    65 1   
    62    31    32 ar  
    63    31    66 1   
    64    32    33 ar  
    65    32    37 ar  
    66    33    34 ar  
    67    34    35 ar  
    68    34    67 1   
    69    35    36 ar  
    70    35    68 1   
    71    36    37 ar  
    72    36    69 1   
    73    37    70 1   
    74    42    72 1   
    75    43    72 1   
    76    44    72 1   
    77    58    71 1   
@<TRIPOS>SUBSTRUCTURE
     1 91G         1 TEMP              0 ****  ****    0 ROOT
