@<TRIPOS>MOLECULE
91H
   59    62     1     0     0
SMALL
No Charge or Current Charge


@<TRIPOS>ATOM
      1 CAS         -6.3500     1.0310    -0.4460 c6         1 91H      -0.088900
      2 CAT         -7.5180     1.9770    -0.0690 c6         1 91H      -0.052400
      3 CAU         -8.8470     1.1910     0.1120 c6         1 91H      -0.191700
      4 CAV        -10.0340     2.1210     0.4670 c          1 91H       0.720000
      5 OAX        -10.9690     2.1830    -0.3190 o          1 91H      -0.735500
      6 OAW         -9.9880     2.7520     1.5130 o          1 91H      -0.735500
      7 CAY         -8.6680     0.0450     1.1480 c6         1 91H      -0.052400
      8 CAZ         -7.4920    -0.8860     0.7600 c6         1 91H      -0.088900
      9 CAR         -6.1680    -0.0940     0.6080 c6         1 91H       0.105700
     10 NAQ         -5.0850    -1.0020     0.2120 ns         1 91H      -0.492900
     11 CAP         -3.7390    -0.7910     0.4250 c          1 91H       0.605700
     12 OBA         -3.3380     0.2060     1.0120 o          1 91H      -0.601100
     13 CAO         -2.7930    -1.8550    -0.0980 ca         1 91H      -0.112600
     14 CBB         -1.3990    -1.6910     0.0840 ca         1 91H      -0.079000
     15 CAN         -3.2530    -3.0190    -0.7620 ca         1 91H      -0.111000
     16 CAM         -2.3410    -3.9840    -1.2200 ca         1 91H      -0.093000
     17 CAL         -0.9630    -3.8020    -1.0280 ca         1 91H      -0.159000
     18 CAK         -0.4820    -2.6500    -0.3860 ca         1 91H       0.283000
     19 NAJ          0.8940    -2.5160    -0.2000 nu         1 91H      -0.917900
     20 CAI          1.7440    -1.4530    -0.2510 cc         1 91H       0.748300
     21 SBC          3.4670    -1.6240    -0.0480 ss         1 91H      -0.138400
     22 NAH          1.2860    -0.2480    -0.5030 nd         1 91H      -0.714000
     23 CAG          2.3390     0.6580    -0.5310 cd         1 91H       0.410900
     24 CAF          3.5730     0.0990    -0.3060 cc         1 91H      -0.342600
     25 CAE          4.8060     0.8980    -0.2960 c          1 91H       0.666700
     26 OBD          4.8200     2.1100    -0.4710 o          1 91H      -0.573100
     27 NAD          5.9380     0.1460    -0.0430 ns         1 91H      -0.171000
     28 CAC          7.3020     0.5390    -0.0050 ca         1 91H      -0.036000
     29 CAB          7.9210     1.1790    -1.1080 ca         1 91H       0.133000
     30 ClA          7.0630     1.4560    -2.6260 cl         1 91H      -0.180000
     31 CBI          9.2730     1.5540    -1.0380 ca         1 91H      -0.103000
     32 CBH         10.0200     1.2900     0.1200 ca         1 91H      -0.102000
     33 CBG          9.4200     0.6360     1.2070 ca         1 91H      -0.107000
     34 CBE          8.0660     0.2510     1.1510 ca         1 91H      -0.073300
     35 CBF          7.4380    -0.4570     2.3500 c3         1 91H      -0.047800
     36 H1          -6.5370     0.5910    -1.4350 hc         1 91H       0.023450
     37 H2          -5.4230     1.6140    -0.5340 hc         1 91H       0.023450
     38 H3          -7.2690     2.5140     0.8580 hc         1 91H       0.046950
     39 H4          -7.6400     2.7420    -0.8480 hc         1 91H       0.046950
     40 H5          -9.0880     0.7250    -0.8550 hc         1 91H       0.023700
     41 H7          -8.4880     0.4660     2.1470 hc         1 91H       0.046950
     42 H8          -9.5950    -0.5410     1.2200 hc         1 91H       0.046950
     43 H9          -7.3740    -1.6640     1.5280 hc         1 91H       0.023450
     44 H10         -7.7300    -1.4070    -0.1780 hc         1 91H       0.023450
     45 H11         -5.9120     0.3590     1.5780 h1         1 91H       0.080700
     46 H12         -5.3360    -1.8490    -0.2780 hn         1 91H       0.302500
     47 H13         -1.0240    -0.8150     0.6030 ha         1 91H       0.174000
     48 H14         -4.3120    -3.1950    -0.9280 ha         1 91H       0.124000
     49 H15         -2.7050    -4.8770    -1.7240 ha         1 91H       0.113000
     50 H16         -0.2690    -4.5570    -1.3870 ha         1 91H       0.103000
     51 H17          1.4130    -3.3880    -0.2410 hn         1 91H       0.502000
     52 H18          2.1390     1.7060    -0.7200 h4         1 91H       0.066100
     53 H19          5.7670    -0.8320     0.1500 hn         1 91H       0.158000
     54 H20          9.7440     2.0400    -1.8890 ha         1 91H       0.130000
     55 H21         11.0680     1.5810     0.1700 ha         1 91H       0.116000
     56 H22         10.0120     0.4280     2.0950 ha         1 91H       0.115000
     57 H23          7.0730    -1.4530     2.0720 hc         1 91H       0.045700
     58 H24          8.1550    -0.5870     3.1690 hc         1 91H       0.045700
     59 H25          6.5900     0.1140     2.7450 hc         1 91H       0.045700
@<TRIPOS>BOND
     1     1     2 1   
     2     1     9 1   
     3     1    36 1   
     4     1    37 1   
     5     2     3 1   
     6     2    38 1   
     7     2    39 1   
     8     3     4 1   
     9     3     7 1   
    10     3    40 1   
    11     4     5 1   
    12     4     6 1   
    13     7     8 1   
    14     7    41 1   
    15     7    42 1   
    16     8     9 1   
    17     8    43 1   
    18     8    44 1   
    19     9    10 1   
    20     9    45 1   
    21    10    11 1   
    22    10    46 1   
    23    11    12 2   
    24    11    13 1   
    25    13    14 ar  
    26    13    15 ar  
    27    14    18 ar  
    28    14    47 1   
    29    15    16 ar  
    30    15    48 1   
    31    16    17 ar  
    32    16    49 1   
    33    17    18 ar  
    34    17    50 1   
    35    18    19 1   
    36    19    20 1   
    37    19    51 1   
    38    20    21 1   
    39    20    22 2   
    40    21    24 1   
    41    22    23 1   
    42    23    24 2   
    43    23    52 1   
    44    24    25 1   
    45    25    26 2   
    46    25    27 1   
    47    27    28 1   
    48    27    53 1   
    49    28    29 ar  
    50    28    34 ar  
    51    29    30 1   
    52    29    31 ar  
    53    31    32 ar  
    54    31    54 1   
    55    32    33 ar  
    56    32    55 1   
    57    33    34 ar  
    58    33    56 1   
    59    34    35 1   
    60    35    57 1   
    61    35    58 1   
    62    35    59 1   
@<TRIPOS>SUBSTRUCTURE
     1 91H         1 TEMP              0 ****  ****    0 ROOT
