@<TRIPOS>MOLECULE
91H
   59    62     1     0     0
SMALL
bcc


@<TRIPOS>ATOM
      1 CAS         -6.5360     0.7710    -1.1030 c6         1 91H      -0.088900
      2 CAT         -7.7020     1.7150    -0.8330 c6         1 91H      -0.052400
      3 CAU         -8.7700     1.0680     0.0510 c6         1 91H      -0.191700
      4 CAV         -9.9770     2.0090     0.2420 c          1 91H       0.930600
      5 OAX        -10.4790     2.4780    -0.8020 o          1 91H      -0.840800
      6 OAW        -10.3700     2.2310     1.4050 o          1 91H      -0.840800
      7 CAY         -8.1420     0.5800     1.3500 c6         1 91H      -0.052400
      8 CAZ         -6.9830    -0.3790     1.0900 c6         1 91H      -0.088900
      9 CAR         -5.9190     0.2510     0.1910 c6         1 91H       0.105700
     10 NAQ         -4.8690    -0.7030    -0.1160 ns         1 91H      -0.559900
     11 CAP         -3.6760    -0.7660     0.4930 c          1 91H       0.672700
     12 OBA         -3.2890     0.0480     1.3230 o          1 91H      -0.601100
     13 CAO         -2.8070    -1.9140     0.0730 ca         1 91H      -0.112600
     14 CBB         -1.4290    -1.7170     0.0800 ca         1 91H      -0.097000
     15 CAN         -3.3430    -3.1480    -0.2790 ca         1 91H      -0.129000
     16 CAM         -2.4900    -4.1810    -0.6430 ca         1 91H      -0.111000
     17 CAL         -1.1230    -3.9870    -0.6670 ca         1 91H      -0.177000
     18 CAK         -0.5790    -2.7500    -0.3080 ca         1 91H       0.144600
     19 NAJ          0.8090    -2.6430    -0.3780 nu         1 91H      -0.724300
     20 CAI          1.6030    -1.5920    -0.0870 cc         1 91H       0.748300
     21 SBC          3.3110    -1.7150    -0.4060 ss         1 91H      -0.283300
     22 NAH          1.2260    -0.4520     0.4180 nd         1 91H      -0.714000
     23 CAG          2.2850     0.3750     0.5830 cd         1 91H       0.476200
     24 CAF          3.5050    -0.1000     0.2090 cc         1 91H      -0.263000
     25 CAE          4.7670     0.6410     0.3100 c          1 91H       0.733700
     26 OBD          4.7980     1.7700     0.7670 o          1 91H      -0.573100
     27 NAD          5.8800     0.0040    -0.1330 ns         1 91H      -0.497100
     28 CAC          7.1560     0.5990    -0.0800 ca         1 91H       0.056600
     29 CAB          7.4870     1.6470    -0.9350 ca         1 91H       0.041400
     30 CLA          6.3290     2.2090    -2.0890 cl         1 91H      -0.088400
     31 CBI          8.7390     2.2370    -0.8980 ca         1 91H      -0.121000
     32 CBH          9.6800     1.7580    -0.0000 ca         1 91H      -0.120000
     33 CBG          9.3670     0.7050     0.8460 ca         1 91H      -0.125000
     34 CBE          8.1060     0.1170     0.8240 ca         1 91H      -0.073300
     35 CBF          7.7700    -1.0180     1.7440 c3         1 91H      -0.047800
     36 H1          -6.8940    -0.0790    -1.6970 hc         1 91H       0.023450
     37 H2          -5.7690     1.2720    -1.7000 hc         1 91H       0.023450
     38 H3          -7.3290     2.6230    -0.3440 hc         1 91H       0.046950
     39 H4          -8.1430     2.0310    -1.7790 hc         1 91H       0.046950
     40 H5          -9.1400     0.1860    -0.4930 hc         1 91H       0.023700
     41 H7          -7.7810     1.4380     1.9270 hc         1 91H       0.046950
     42 H8          -8.8880     0.0850     1.9740 hc         1 91H       0.046950
     43 H9          -6.5250    -0.6900     2.0320 hc         1 91H       0.023450
     44 H10         -7.3580    -1.2890     0.6080 hc         1 91H       0.023450
     45 H11         -5.4600     1.0880     0.7220 h1         1 91H       0.080700
     46 H12         -5.0790    -1.3820    -0.8300 hn         1 91H       0.302500
     47 H13         -1.0270    -0.7610     0.3780 ha         1 91H       0.192000
     48 H14         -4.4100    -3.3260    -0.2490 ha         1 91H       0.142000
     49 H15         -2.8940    -5.1490    -0.9090 ha         1 91H       0.131000
     50 H16         -0.4700    -4.8000    -0.9620 ha         1 91H       0.121000
     51 H17          1.2760    -3.4680    -0.7230 hn         1 91H       0.446800
     52 H18          2.1260     1.3610     0.9960 h4         1 91H       0.066100
     53 H19          5.8370    -0.9600    -0.4280 hn         1 91H       0.324500
     54 H20          8.9780     3.0540    -1.5660 ha         1 91H       0.148000
     55 H21         10.6620     2.2080     0.0340 ha         1 91H       0.134000
     56 H22         10.1090     0.3370     1.5440 ha         1 91H       0.133000
     57 H23          7.6200    -1.9490     1.1940 hc         1 91H       0.045700
     58 H24          8.5730    -1.1860     2.4580 hc         1 91H       0.045700
     59 H25          6.8540    -0.8280     2.3040 hc         1 91H       0.045700
@<TRIPOS>BOND
     1     1     2 1   
     2     1     9 1   
     3     1    36 1   
     4     1    37 1   
     5     2     3 1   
     6     2    38 1   
     7     2    39 1   
     8     3     4 1   
     9     3     7 1   
    10     3    40 1   
    11     4     5 1   
    12     4     6 1   
    13     7     8 1   
    14     7    41 1   
    15     7    42 1   
    16     8     9 1   
    17     8    43 1   
    18     8    44 1   
    19     9    10 1   
    20     9    45 1   
    21    10    11 1   
    22    10    46 1   
    23    11    12 2   
    24    11    13 1   
    25    13    14 ar  
    26    13    15 ar  
    27    14    18 ar  
    28    14    47 1   
    29    15    16 ar  
    30    15    48 1   
    31    16    17 ar  
    32    16    49 1   
    33    17    18 ar  
    34    17    50 1   
    35    18    19 1   
    36    19    20 1   
    37    19    51 1   
    38    20    21 1   
    39    20    22 2   
    40    21    24 1   
    41    22    23 1   
    42    23    24 2   
    43    23    52 1   
    44    24    25 1   
    45    25    26 2   
    46    25    27 1   
    47    27    28 1   
    48    27    53 1   
    49    28    29 ar  
    50    28    34 ar  
    51    29    30 1   
    52    29    31 ar  
    53    31    32 ar  
    54    31    54 1   
    55    32    33 ar  
    56    32    55 1   
    57    33    34 ar  
    58    33    56 1   
    59    34    35 1   
    60    35    57 1   
    61    35    58 1   
    62    35    59 1   
@<TRIPOS>SUBSTRUCTURE
     1 91H         1 TEMP              0 ****  ****    0 ROOT
