@<TRIPOS>MOLECULE
91I
   68    71     1     0     0
SMALL
No Charge or Current Charge


@<TRIPOS>ATOM
      1 N1         -20.2000    15.8870   -26.0560 n          1 91I      -0.400800
      2 N3         -20.3340    21.8660   -30.8400 nt         1 91I      -0.591000
      3 C4         -20.5490    14.2480   -27.7510 cx         1 91I      -0.125700
      4 C5         -19.0900    13.9290   -28.0470 cx         1 91I      -0.075000
      5 C6         -18.0600    13.6440   -26.9390 c3         1 91I      -0.066100
      6 C7         -18.7850    13.0460   -29.2570 c3         1 91I      -0.066100
      7 C8         -20.9130    14.6090   -26.3050 c5         1 91I       0.135000
      8 C10        -20.8600    15.8990   -23.5980 c3         1 91I      -0.152400
      9 C13        -21.6350    13.0880   -21.8890 ca         1 91I      -0.111500
     10 C15        -22.4130    13.1290   -19.5820 ca         1 91I      -0.111000
     11 C17        -20.8920    14.8520   -20.3880 ca         1 91I      -0.111500
     12 C20        -19.2270    21.1770   -31.2080 c          1 91I       0.613100
     13 C21        -17.6910    20.4690   -28.5760 c3         1 91I      -0.075400
     14 C22        -17.5010    20.4730   -27.0310 c5         1 91I      -0.157700
     15 C24        -17.9410    21.4330   -24.8730 c5         1 91I       0.099000
     16 C1         -19.8840    17.8130   -27.6960 c          1 91I       0.597100
     17 C2         -19.4240    16.3960   -27.2270 c5         1 91I       0.056700
     18 C3         -19.6520    15.3200   -28.3100 cx         1 91I      -0.135700
     19 C9         -20.0350    16.4480   -24.7720 c          1 91I       0.611100
     20 C11        -20.0510    14.8610   -22.7870 c3         1 91I      -0.028100
     21 C12        -20.8750    14.2520   -21.6620 ca         1 91I      -0.078300
     22 C14        -22.4010    12.5280   -20.8520 ca         1 91I      -0.105500
     23 C16        -21.6580    14.2910   -19.3500 ca         1 91I      -0.105500
     24 O2         -19.2530    17.3740   -24.5950 o          1 91I      -0.613100
     25 N2         -18.9430    18.3300   -28.5680 ns         1 91I      -0.516900
     26 C18        -18.9450    19.7100   -29.0870 c3         1 91I       0.075700
     27 C19        -19.0810    19.7300   -30.6390 c3         1 91I       0.070300
     28 O3         -20.1890    18.8800   -31.0370 oh         1 91I      -0.659000
     29 C23        -18.6500    21.1370   -26.2220 c5         1 91I      -0.089400
     30 N4         -16.6060    21.7910   -25.3470 ns         1 91I      -0.513900
     31 C25        -16.2670    21.2530   -26.5580 c          1 91I       0.564000
     32 O5         -15.2630    21.5720   -27.1740 o          1 91I      -0.558000
     33 H1         -20.4780    22.7980   -31.1980 hn         1 91I       0.322000
     34 H2         -21.0370    21.4170   -30.2720 hn         1 91I       0.322000
     35 H3         -21.3070    13.8080   -28.3950 hc         1 91I       0.102700
     36 H4         -18.2050    14.2330   -26.0290 hc         1 91I       0.042367
     37 H5         -18.0960    12.5880   -26.6430 hc         1 91I       0.042367
     38 H6         -17.0440    13.8520   -27.2940 hc         1 91I       0.042367
     39 H7         -18.8380    11.9830   -28.9910 hc         1 91I       0.042367
     40 H8         -19.4990    13.2170   -30.0720 hc         1 91I       0.042367
     41 H9         -17.7820    13.2480   -29.6490 hc         1 91I       0.042367
     42 H10        -21.9960    14.7510   -26.1910 h1         1 91I       0.058200
     43 H11        -20.6080    13.8270   -25.5970 h1         1 91I       0.058200
     44 H12        -21.1260    16.7270   -22.9310 hc         1 91I       0.069700
     45 H13        -21.7700    15.4080   -23.9580 hc         1 91I       0.069700
     46 H15        -23.0060    12.6960   -18.7800 ha         1 91I       0.114000
     47 H16        -20.3130    15.7530   -20.2010 ha         1 91I       0.110000
     48 H17        -16.8020    20.0280   -29.0450 hc         1 91I       0.071700
     49 H18        -17.7320    21.5070   -28.9300 hc         1 91I       0.071700
     50 H19        -17.3790    19.4460   -26.6670 hc         1 91I       0.086700
     51 H20        -18.4310    22.2440   -24.3190 h1         1 91I       0.046700
     52 H21        -17.9100    20.5410   -24.2310 h1         1 91I       0.046700
     53 H22        -18.3600    16.4810   -26.9670 h1         1 91I       0.084700
     54 H23        -19.7830    15.6210   -29.3480 hc         1 91I       0.096700
     55 H24        -19.6910    14.0710   -23.4580 hc         1 91I       0.056200
     56 H25        -19.1530    15.3430   -22.3800 hc         1 91I       0.056200
     57 H26        -22.9870    11.6280   -21.0330 ha         1 91I       0.113000
     58 H27        -21.6670    14.7590   -18.3680 ha         1 91I       0.113000
     59 H28        -18.1310    17.7510   -28.7550 hn         1 91I       0.315500
     60 H29        -19.8220    20.2290   -28.6760 h1         1 91I       0.090700
     61 H30        -18.1500    19.3270   -31.0600 h1         1 91I       0.063700
     62 H31        -20.1660    18.0980   -30.4430 ho         1 91I       0.457000
     63 H32        -18.9860    22.0670   -26.6950 hc         1 91I       0.062200
     64 H33        -19.5270    20.4920   -26.1010 hc         1 91I       0.062200
     65 H34        -15.9580    22.4230   -24.8910 hn         1 91I       0.325500
     66 O1         -20.9160    18.4020   -27.3960 o          1 91I      -0.586100
     67 O4         -18.4100    21.6920   -31.9550 o          1 91I      -0.600100
     68 H14        -21.6340    12.6170   -22.8700 ha         1 91I       0.110000
@<TRIPOS>BOND
     1     1     7 1   
     2     1    17 1   
     3     1    19 1   
     4     2    12 1   
     5     2    33 1   
     6     2    34 1   
     7     3     4 1   
     8     3     7 1   
     9     3    18 1   
    10     3    35 1   
    11     4     5 1   
    12     4     6 1   
    13     4    18 1   
    14     5    36 1   
    15     5    37 1   
    16     5    38 1   
    17     6    39 1   
    18     6    40 1   
    19     6    41 1   
    20     7    42 1   
    21     7    43 1   
    22     8    19 1   
    23     8    20 1   
    24     8    44 1   
    25     8    45 1   
    26     9    21 ar  
    27     9    22 ar  
    28     9    68 1   
    29    10    22 ar  
    30    10    23 ar  
    31    10    46 1   
    32    11    21 ar  
    33    11    23 ar  
    34    11    47 1   
    35    12    27 1   
    36    12    67 2   
    37    13    14 1   
    38    13    26 1   
    39    13    48 1   
    40    13    49 1   
    41    14    29 1   
    42    14    31 1   
    43    14    50 1   
    44    15    29 1   
    45    15    30 1   
    46    15    51 1   
    47    15    52 1   
    48    16    17 1   
    49    16    25 1   
    50    16    66 2   
    51    17    18 1   
    52    17    53 1   
    53    18    54 1   
    54    19    24 2   
    55    20    21 1   
    56    20    55 1   
    57    20    56 1   
    58    22    57 1   
    59    23    58 1   
    60    25    26 1   
    61    25    59 1   
    62    26    27 1   
    63    26    60 1   
    64    27    28 1   
    65    27    61 1   
    66    28    62 1   
    67    29    63 1   
    68    29    64 1   
    69    30    31 1   
    70    30    65 1   
    71    31    32 2   
@<TRIPOS>SUBSTRUCTURE
     1 91I         1 TEMP              0 ****  ****    0 ROOT
