@<TRIPOS>MOLECULE
91I
   68    71     1     0     0
SMALL
bcc


@<TRIPOS>ATOM
      1 N1         -20.0950    15.9630   -26.0960 n          1 91I      -0.467800
      2 N3         -20.0070    21.4940   -31.2110 nt         1 91I      -0.658000
      3 C4         -21.0060    14.5620   -27.7420 cx         1 91I      -0.125700
      4 C5         -19.7230    13.8620   -28.0940 cx         1 91I      -0.075000
      5 C6         -18.7910    13.3140   -27.0390 c3         1 91I      -0.066100
      6 C7         -19.7750    13.0010   -29.3360 c3         1 91I      -0.066100
      7 C8         -21.2110    15.0530   -26.3310 c5         1 91I       0.135000
      8 C10        -20.5530    16.1210   -23.7040 c3         1 91I      -0.152400
      9 C13        -20.0950    13.0550   -21.4360 ca         1 91I      -0.129500
     10 C15        -21.7160    13.0890   -19.6600 ca         1 91I      -0.129000
     11 C17        -21.5660    14.9270   -21.2110 ca         1 91I      -0.129500
     12 C20        -18.7530    21.0630   -31.0290 c          1 91I       0.680100
     13 C21        -17.6140    20.5250   -28.2640 c3         1 91I      -0.075400
     14 C22        -17.6520    20.4860   -26.7450 c5         1 91I      -0.157700
     15 C24        -18.3850    21.5640   -24.7280 c5         1 91I       0.099000
     16 C1         -19.6910    17.7360   -27.7380 c          1 91I       0.664100
     17 C2         -19.3660    16.3110   -27.2960 c5         1 91I       0.056700
     18 C3         -19.8690    15.3380   -28.3430 cx         1 91I      -0.135700
     19 C9         -19.8020    16.5780   -24.9340 c          1 91I       0.678100
     20 C11        -19.8440    14.9110   -23.0920 c3         1 91I      -0.028100
     21 C12        -20.5270    14.3010   -21.8930 ca         1 91I      -0.078300
     22 C14        -20.6780    12.4530   -20.3320 ca         1 91I      -0.123500
     23 C16        -22.1560    14.3260   -20.1040 ca         1 91I      -0.123500
     24 O2         -18.9210    17.4280   -24.8680 o          1 91I      -0.613100
     25 N2         -18.6910    18.3370   -28.4130 ns         1 91I      -0.583900
     26 C18        -18.7280    19.6980   -28.9050 c3         1 91I       0.075700
     27 C19        -18.6340    19.6590   -30.4470 c3         1 91I       0.047100
     28 O3         -19.6540    18.8690   -31.0000 oh         1 91I      -0.596800
     29 C23        -18.8920    21.0930   -26.0910 c5         1 91I      -0.089400
     30 N4         -16.9950    21.8570   -25.0030 ns         1 91I      -0.580900
     31 C25        -16.5090    21.2630   -26.1060 c          1 91I       0.706500
     32 O5         -15.3600    21.3210   -26.5110 o          1 91I      -0.633500
     33 H1         -20.1780    22.4070   -31.6020 hn         1 91I       0.322000
     34 H2         -20.7980    20.8870   -31.0780 hn         1 91I       0.322000
     35 H3         -21.8970    14.3390   -28.3160 hc         1 91I       0.102700
     36 H4         -18.7190    13.9350   -26.1480 hc         1 91I       0.042367
     37 H5         -19.1220    12.3230   -26.7220 hc         1 91I       0.042367
     38 H6         -17.7840    13.2070   -27.4470 hc         1 91I       0.042367
     39 H7         -20.1070    11.9900   -29.0930 hc         1 91I       0.042367
     40 H8         -20.4590    13.4050   -30.0830 hc         1 91I       0.042367
     41 H9         -18.7880    12.9260   -29.7960 hc         1 91I       0.042367
     42 H10        -22.1680    15.5740   -26.2530 h1         1 91I       0.058200
     43 H11        -21.2140    14.2360   -25.6060 h1         1 91I       0.058200
     44 H12        -20.5610    16.9520   -22.9980 hc         1 91I       0.069700
     45 H13        -21.5920    15.8770   -23.9290 hc         1 91I       0.069700
     46 H15        -22.1770    12.6210   -18.7990 ha         1 91I       0.132000
     47 H16        -21.9300    15.8940   -21.5340 ha         1 91I       0.128000
     48 H17        -16.6430    20.1620   -28.6140 hc         1 91I       0.071700
     49 H18        -17.7000    21.5620   -28.5940 hc         1 91I       0.071700
     50 H19        -17.5360    19.4510   -26.4010 hc         1 91I       0.086700
     51 H20        -18.9100    22.4480   -24.3650 h1         1 91I       0.046700
     52 H21        -18.4840    20.7790   -23.9710 h1         1 91I       0.046700
     53 H22        -18.2890    16.2060   -27.1250 h1         1 91I       0.084700
     54 H23        -19.8990    15.6860   -29.3690 hc         1 91I       0.096700
     55 H24        -19.7230    14.1310   -23.8500 hc         1 91I       0.056200
     56 H25        -18.8290    15.2040   -22.8100 hc         1 91I       0.056200
     57 H26        -20.3260    11.4850   -19.9990 ha         1 91I       0.131000
     58 H27        -22.9640    14.8310   -19.5900 ha         1 91I       0.131000
     59 H28        -17.8000    17.8620   -28.4570 hn         1 91I       0.315500
     60 H29        -19.7010    20.1110   -28.6330 h1         1 91I       0.090700
     61 H30        -17.6390    19.2830   -30.7200 h1         1 91I       0.063700
     62 H31        -19.5860    17.9810   -30.6320 ho         1 91I       0.418000
     63 H32        -19.2340    21.9520   -26.6760 hc         1 91I       0.062200
     64 H33        -19.7220    20.3960   -26.0020 hc         1 91I       0.062200
     65 H34        -16.3960    22.3270   -24.3420 hn         1 91I       0.325500
     66 O1         -20.7830    18.2350   -27.5370 o          1 91I      -0.586100
     67 O4         -17.7610    21.7360   -31.2610 o          1 91I      -0.600100
     68 H14        -19.2910    12.5480   -21.9580 ha         1 91I       0.128000
@<TRIPOS>BOND
     1     1     7 1   
     2     1    17 1   
     3     1    19 1   
     4     2    12 1   
     5     2    33 1   
     6     2    34 1   
     7     3     4 1   
     8     3     7 1   
     9     3    18 1   
    10     3    35 1   
    11     4     5 1   
    12     4     6 1   
    13     4    18 1   
    14     5    36 1   
    15     5    37 1   
    16     5    38 1   
    17     6    39 1   
    18     6    40 1   
    19     6    41 1   
    20     7    42 1   
    21     7    43 1   
    22     8    19 1   
    23     8    20 1   
    24     8    44 1   
    25     8    45 1   
    26     9    21 ar  
    27     9    22 ar  
    28     9    68 1   
    29    10    22 ar  
    30    10    23 ar  
    31    10    46 1   
    32    11    21 ar  
    33    11    23 ar  
    34    11    47 1   
    35    12    27 1   
    36    12    67 2   
    37    13    14 1   
    38    13    26 1   
    39    13    48 1   
    40    13    49 1   
    41    14    29 1   
    42    14    31 1   
    43    14    50 1   
    44    15    29 1   
    45    15    30 1   
    46    15    51 1   
    47    15    52 1   
    48    16    17 1   
    49    16    25 1   
    50    16    66 2   
    51    17    18 1   
    52    17    53 1   
    53    18    54 1   
    54    19    24 2   
    55    20    21 1   
    56    20    55 1   
    57    20    56 1   
    58    22    57 1   
    59    23    58 1   
    60    25    26 1   
    61    25    59 1   
    62    26    27 1   
    63    26    60 1   
    64    27    28 1   
    65    27    61 1   
    66    28    62 1   
    67    29    63 1   
    68    29    64 1   
    69    30    31 1   
    70    30    65 1   
    71    31    32 2   
@<TRIPOS>SUBSTRUCTURE
     1 91I         1 TEMP              0 ****  ****    0 ROOT
