@<TRIPOS>MOLECULE
91J
   47    50     1     0     0
SMALL
bcc


@<TRIPOS>ATOM
      1 C4          -4.9190     1.1720    -1.0640 c6         1 91J      -0.071900
      2 C5          -3.9230     0.0380    -0.8440 c6         1 91J      -0.082700
      3 C6          -2.5360     0.4360    -1.3310 c3         1 91J       0.236800
      4 C8          -0.3290    -0.5940    -0.9480 cc         1 91J       0.737800
      5 C10          1.5080     0.4990    -0.2900 cd         1 91J       0.281300
      6 C13          5.1240     1.6400     0.8370 c6         1 91J       0.003900
      7 C15          6.1660    -0.5760     0.2730 c6         1 91J      -0.074400
      8 C17          3.6870    -0.3160     0.0880 cc         1 91J      -0.013300
      9 C24         -5.3440    -0.6790     1.0950 c6         1 91J       0.166800
     10 N2          -6.2440     0.4360     0.8660 n3         1 91J      -0.715600
     11 C3          -6.2950     0.7940    -0.5390 c6         1 91J       0.166800
     12 N7          -1.6230    -0.6860    -1.2700 nu         1 91J      -0.852200
     13 N9           0.2060     0.5520    -0.6090 nd         1 91J      -0.688100
     14 S11          2.3780     1.9090     0.1990 ss         1 91J      -0.077800
     15 C12          3.8520     0.9960     0.3910 cd         1 91J      -0.084400
     16 C14          6.1130     0.5650     1.2820 c6         1 91J      -0.071400
     17 C16          4.8220    -1.2940     0.1600 c6         1 91J      -0.015100
     18 C18          2.3350    -0.6110    -0.2960 cc         1 91J      -0.284600
     19 C19          1.7480    -1.8650    -0.6690 c          1 91J       0.757100
     20 O20          2.2960    -2.9550    -0.7300 o          1 91J      -0.623500
     21 N21          0.3960    -1.7500    -0.9810 ns         1 91J      -0.517400
     22 C23         -3.9330    -0.3560     0.6290 c6         1 91J      -0.071900
     23 H1          -4.5700     2.0730    -0.5470 hc         1 91J       0.051700
     24 H2          -4.9920     1.4200    -2.1260 hc         1 91J       0.051700
     25 H3          -4.2630    -0.8240    -1.4360 hc         1 91J       0.040700
     26 H4          -2.5960     0.8160    -2.3560 h1         1 91J       0.065700
     27 H5          -2.1400     1.2400    -0.7110 h1         1 91J       0.065700
     28 H6           5.5550     2.2260     0.0190 hc         1 91J       0.047700
     29 H7           4.9370     2.3450     1.6510 hc         1 91J       0.047700
     30 H8           6.4460    -0.1750    -0.7060 hc         1 91J       0.041700
     31 H9           6.9390    -1.2950     0.5480 hc         1 91J       0.041700
     32 H10         -5.3380    -0.9080     2.1640 h1         1 91J       0.031200
     33 H11         -5.6950    -1.5930     0.5810 h1         1 91J       0.031200
     34 H12         -7.5060    -0.0470     2.4570 h1         1 91J       0.030700
     35 H13         -8.2060     1.0370     1.2550 h1         1 91J       0.030700
     36 H14         -8.0570    -0.6910     0.9040 h1         1 91J       0.030700
     37 H16         -6.9820     1.6350    -0.6590 h1         1 91J       0.031200
     38 H17         -6.7010    -0.0340    -1.1510 h1         1 91J       0.031200
     39 H18         -1.9680    -1.5690    -1.6110 hn         1 91J       0.435800
     40 H19          7.1010     1.0100     1.4080 hc         1 91J       0.042200
     41 H20          5.8140     0.1760     2.2600 hc         1 91J       0.042200
     42 H21          4.8150    -1.9390    -0.7190 hc         1 91J       0.062200
     43 H22          4.6760    -1.9580     1.0180 hc         1 91J       0.062200
     44 H23         -0.0670    -2.6120    -1.2410 hn         1 91J       0.320500
     45 H24         -3.2880    -1.2200     0.8060 hc         1 91J       0.051700
     46 H25         -3.5330     0.4700     1.2270 hc         1 91J       0.051700
     47 C1          -7.5620     0.1660     1.3880 c3         1 91J       0.153100
@<TRIPOS>BOND
     1     1     2 1   
     2     1    11 1   
     3     1    23 1   
     4     1    24 1   
     5     2     3 1   
     6     2    22 1   
     7     2    25 1   
     8     3    12 1   
     9     3    26 1   
    10     3    27 1   
    11     4    12 1   
    12     4    13 2   
    13     4    21 1   
    14     5    13 1   
    15     5    14 1   
    16     5    18 2   
    17     6    15 1   
    18     6    16 1   
    19     6    28 1   
    20     6    29 1   
    21     7    16 1   
    22     7    17 1   
    23     7    30 1   
    24     7    31 1   
    25     8    15 2   
    26     8    17 1   
    27     8    18 1   
    28     9    10 1   
    29     9    22 1   
    30     9    32 1   
    31     9    33 1   
    32    10    11 1   
    33    10    47 1   
    34    11    37 1   
    35    11    38 1   
    36    12    39 1   
    37    14    15 1   
    38    16    40 1   
    39    16    41 1   
    40    17    42 1   
    41    17    43 1   
    42    18    19 1   
    43    19    20 2   
    44    19    21 1   
    45    21    44 1   
    46    22    45 1   
    47    22    46 1   
    48    34    47 1   
    49    35    47 1   
    50    36    47 1   
@<TRIPOS>SUBSTRUCTURE
     1 91J         1 TEMP              0 ****  ****    0 ROOT
