@<TRIPOS>MOLECULE
91J
   47    50     1     0     0
SMALL
No Charge or Current Charge


@<TRIPOS>ATOM
      1 C4          -4.9190     1.2960    -0.8370 c6         1 91J      -0.071900
      2 C5          -3.9550     0.1250    -0.5090 c6         1 91J      -0.082700
      3 C6          -2.4720     0.5950    -0.5300 c3         1 91J       0.236800
      4 C8          -0.1900    -0.4680    -0.3340 cc         1 91J       0.737800
      5 C10          1.7510     0.7220    -0.1250 cd         1 91J       0.136400
      6 C13          5.6040     1.6560     0.2850 c6         1 91J       0.003900
      7 C15          6.3570    -0.7540    -0.0730 c6         1 91J      -0.074400
      8 C17          3.8780    -0.2120     0.0260 cc         1 91J      -0.013300
      9 C24         -5.8570    -0.9030     0.8670 c6         1 91J       0.166800
     10 N2          -6.7390     0.2520     0.5430 n3         1 91J      -0.715600
     11 C3          -6.3990     0.8420    -0.7800 c6         1 91J       0.166800
     12 N7          -1.5370    -0.5410    -0.4570 nu         1 91J      -0.907400
     13 N9           0.3610     0.7290    -0.2460 nd         1 91J      -0.688100
     14 S11          2.7670     2.1690     0.0200 ss         1 91J       0.212000
     15 C12          4.1960     1.1250     0.1210 cd         1 91J      -0.229300
     16 C14          6.5630     0.5360     0.7570 c6         1 91J      -0.071400
     17 C16          4.9190    -1.3150     0.0850 c6         1 91J      -0.015100
     18 C18          2.4700    -0.4470    -0.1020 cc         1 91J      -0.284600
     19 C19          1.8090    -1.7550    -0.1910 c          1 91J       0.614600
     20 O20          2.3530    -2.8470    -0.1620 o          1 91J      -0.548000
     21 N21          0.4730    -1.6420    -0.3080 ns         1 91J      -0.450400
     22 C23         -4.3620    -0.5000     0.8560 c6         1 91J      -0.071900
     23 H1          -4.7660     2.1200    -0.1270 hc         1 91J       0.051700
     24 H2          -4.7000     1.6980    -1.8350 hc         1 91J       0.051700
     25 H3          -4.0610    -0.6350    -1.2960 hc         1 91J       0.040700
     26 H4          -2.2940     1.1540    -1.4600 h1         1 91J       0.065700
     27 H5          -2.3060     1.2860     0.3080 h1         1 91J       0.065700
     28 H6           5.9590     2.0610    -0.6720 hc         1 91J       0.047700
     29 H7           5.6250     2.4890     1.0010 hc         1 91J       0.047700
     30 H8           6.5510    -0.5370    -1.1330 hc         1 91J       0.041700
     31 H9           7.0890    -1.5170     0.2260 hc         1 91J       0.041700
     32 H10         -6.1060    -1.3040     1.8600 h1         1 91J       0.031200
     33 H11         -6.0150    -1.7160     0.1420 h1         1 91J       0.031200
     34 H12         -8.4070    -0.4640     1.6590 h1         1 91J       0.030700
     35 H13         -8.7980     0.7960     0.4700 h1         1 91J       0.030700
     36 H14         -8.4510    -0.8630    -0.0750 h1         1 91J       0.030700
     37 H16         -7.0410     1.7110    -0.9850 h1         1 91J       0.031200
     38 H17         -6.5800     0.1090    -1.5810 h1         1 91J       0.031200
     39 H18         -1.9080    -1.4750    -0.5930 hn         1 91J       0.491000
     40 H19          7.6040     0.8790     0.6750 hc         1 91J       0.042200
     41 H20          6.3860     0.3210     1.8200 hc         1 91J       0.042200
     42 H21          4.7510    -2.0630    -0.7020 hc         1 91J       0.062200
     43 H22          4.8410    -1.8480     1.0420 hc         1 91J       0.062200
     44 H23         -0.0410    -2.5030    -0.3700 hn         1 91J       0.320500
     45 H24         -3.7490    -1.3840     1.0730 hc         1 91J       0.051700
     46 H25         -4.1740     0.2160     1.6670 hc         1 91J       0.051700
     47 C1          -8.1740    -0.0890     0.6530 c3         1 91J       0.153100
@<TRIPOS>BOND
     1     1     2 1   
     2     1    11 1   
     3     1    23 1   
     4     1    24 1   
     5     2     3 1   
     6     2    22 1   
     7     2    25 1   
     8     3    12 1   
     9     3    26 1   
    10     3    27 1   
    11     4    12 1   
    12     4    13 2   
    13     4    21 1   
    14     5    13 1   
    15     5    14 1   
    16     5    18 2   
    17     6    15 1   
    18     6    16 1   
    19     6    28 1   
    20     6    29 1   
    21     7    16 1   
    22     7    17 1   
    23     7    30 1   
    24     7    31 1   
    25     8    15 2   
    26     8    17 1   
    27     8    18 1   
    28     9    10 1   
    29     9    22 1   
    30     9    32 1   
    31     9    33 1   
    32    10    11 1   
    33    10    47 1   
    34    11    37 1   
    35    11    38 1   
    36    12    39 1   
    37    14    15 1   
    38    16    40 1   
    39    16    41 1   
    40    17    42 1   
    41    17    43 1   
    42    18    19 1   
    43    19    20 2   
    44    19    21 1   
    45    21    44 1   
    46    22    45 1   
    47    22    46 1   
    48    34    47 1   
    49    35    47 1   
    50    36    47 1   
@<TRIPOS>SUBSTRUCTURE
     1 91J         1 TEMP              0 ****  ****    0 ROOT
