@<TRIPOS>MOLECULE
91K
   56    59     1     0     0
SMALL
No Charge or Current Charge


@<TRIPOS>ATOM
      1 OAW          9.5750    -2.8510    -0.7750 o          1 91K      -0.735000
      2 CAV          8.7880    -2.8180     0.1580 c          1 91K       0.717000
      3 OAX          9.1100    -2.5500     1.3060 o          1 91K      -0.735000
      4 CAU          7.2980    -3.0620    -0.1420 c3         1 91K      -0.203400
      5 CAT          6.5900    -1.7360    -0.5290 c5         1 91K      -0.047700
      6 CAY          6.5600    -0.6440     0.5830 c5         1 91K       0.103000
      7 CAS          5.0820    -1.8900    -0.8550 c5         1 91K      -0.101400
      8 CAR          4.6420    -0.4100    -0.9250 c5         1 91K       0.101000
      9 NAQ          5.3410     0.1400     0.2580 n          1 91K      -0.400800
     10 CAP          5.2060     1.4840     0.6690 c          1 91K       0.601700
     11 OAZ          6.1330     2.0610     1.2260 o          1 91K      -0.604100
     12 CAO          3.8640     2.1680     0.5050 ca         1 91K      -0.095600
     13 CBA          2.6450     1.4740     0.6930 ca         1 91K      -0.138000
     14 CAN          3.8200     3.5500     0.2270 ca         1 91K      -0.092000
     15 CAM          2.5880     4.2130     0.0960 ca         1 91K      -0.097000
     16 CAL          1.3870     3.5010     0.2540 ca         1 91K      -0.124000
     17 CAK          1.4100     2.1270     0.5500 ca         1 91K       0.279000
     18 NAJ          0.2350     1.4030     0.7550 nu         1 91K      -0.912900
     19 CAI         -0.9820     1.4060     0.1440 cc         1 91K       0.754300
     20 SBB         -2.2590     0.3070     0.5930 ss         1 91K      -0.123400
     21 NAH         -1.2190     2.2250    -0.8560 nd         1 91K      -0.736000
     22 CAG         -2.5100     2.0240    -1.3300 cd         1 91K       0.405900
     23 CAF         -3.2080     1.0410    -0.6730 cc         1 91K      -0.347600
     24 CAE         -4.5880     0.6870    -1.0310 c          1 91K       0.667700
     25 OBC         -5.2050     1.2270    -1.9410 o          1 91K      -0.582100
     26 NAD         -5.1060    -0.3340    -0.2550 ns         1 91K      -0.172000
     27 CAC         -6.4020    -0.9120    -0.2580 ca         1 91K      -0.038000
     28 CAB         -7.5660    -0.1250    -0.0720 ca         1 91K       0.132000
     29 Cl1         -7.4750     1.6070     0.2560 cl         1 91K      -0.184000
     30 CBH         -8.8340    -0.7290    -0.0790 ca         1 91K      -0.105000
     31 CBG         -8.9570    -2.1140    -0.2630 ca         1 91K      -0.101000
     32 CBF         -7.8070    -2.9030    -0.4260 ca         1 91K      -0.108000
     33 CBD         -6.5270    -2.3130    -0.4180 ca         1 91K      -0.067300
     34 CBE         -5.2940    -3.1950    -0.5990 c3         1 91K      -0.047800
     35 H2           7.1970    -3.7240    -1.0100 hc         1 91K       0.022700
     36 H3           6.7900    -3.4420     0.7530 hc         1 91K       0.022700
     37 H4           7.1130    -1.3450    -1.4110 hc         1 91K       0.064700
     38 H5           6.4640    -1.0900     1.5820 h1         1 91K       0.072200
     39 H6           7.4730    -0.0330     0.5700 h1         1 91K       0.072200
     40 H7           4.9030    -2.4230    -1.7960 hc         1 91K       0.041700
     41 H8           4.5480    -2.4280    -0.0620 hc         1 91K       0.041700
     42 H9           4.9950     0.0760    -1.8440 h1         1 91K       0.030700
     43 H10          3.5520    -0.3200    -0.8830 h1         1 91K       0.030700
     44 H11          2.6590     0.4230     0.9690 ha         1 91K       0.118000
     45 H12          4.7450     4.1120     0.1050 ha         1 91K       0.132000
     46 H13          2.5650     5.2780    -0.1230 ha         1 91K       0.113000
     47 H14          0.4410     4.0260     0.1670 ha         1 91K       0.147000
     48 H15          0.3440     0.5690     1.3240 hn         1 91K       0.508000
     49 H16         -2.8770     2.6240    -2.1540 h4         1 91K       0.058100
     50 H17         -4.4590    -0.7320     0.4130 hn         1 91K       0.162000
     51 H18         -9.7230    -0.1210     0.0690 ha         1 91K       0.129000
     52 H19         -9.9410    -2.5780    -0.2670 ha         1 91K       0.116000
     53 H20         -7.9140    -3.9770    -0.5570 ha         1 91K       0.115000
     54 H21         -4.6330    -3.1320     0.2730 hc         1 91K       0.046700
     55 H22         -5.5630    -4.2500    -0.7310 hc         1 91K       0.046700
     56 H23         -4.7190    -2.8920    -1.4820 hc         1 91K       0.046700
@<TRIPOS>BOND
     1     1     2 1   
     2     2     3 1   
     3     2     4 1   
     4     4     5 1   
     5     4    35 1   
     6     4    36 1   
     7     5     6 1   
     8     5     7 1   
     9     5    37 1   
    10     6     9 1   
    11     6    38 1   
    12     6    39 1   
    13     7     8 1   
    14     7    40 1   
    15     7    41 1   
    16     8     9 1   
    17     8    42 1   
    18     8    43 1   
    19     9    10 1   
    20    10    11 2   
    21    10    12 1   
    22    12    13 ar  
    23    12    14 ar  
    24    13    17 ar  
    25    13    44 1   
    26    14    15 ar  
    27    14    45 1   
    28    15    16 ar  
    29    15    46 1   
    30    16    17 ar  
    31    16    47 1   
    32    17    18 1   
    33    18    19 1   
    34    18    48 1   
    35    19    20 1   
    36    19    21 2   
    37    20    23 1   
    38    21    22 1   
    39    22    23 2   
    40    22    49 1   
    41    23    24 1   
    42    24    25 2   
    43    24    26 1   
    44    26    27 1   
    45    26    50 1   
    46    27    28 ar  
    47    27    33 ar  
    48    28    29 1   
    49    28    30 ar  
    50    30    31 ar  
    51    30    51 1   
    52    31    32 ar  
    53    31    52 1   
    54    32    33 ar  
    55    32    53 1   
    56    33    34 1   
    57    34    54 1   
    58    34    55 1   
    59    34    56 1   
@<TRIPOS>SUBSTRUCTURE
     1 91K         1 TEMP              0 ****  ****    0 ROOT
