@<TRIPOS>MOLECULE
91K
   56    59     1     0     0
SMALL
bcc


@<TRIPOS>ATOM
      1 OAW          9.8650    -0.9660     0.4880 o          1 91K      -0.840300
      2 CAV          9.4950    -2.1390     0.6950 c          1 91K       0.927600
      3 OAX         10.1580    -3.0370     1.2540 o          1 91K      -0.840300
      4 CAU          8.0960    -2.5490     0.1980 c3         1 91K      -0.203400
      5 CAT          7.2000    -1.4210    -0.2720 c5         1 91K      -0.047700
      6 CAY          6.8080    -0.4380     0.8290 c5         1 91K       0.103000
      7 CAS          5.8440    -1.8850    -0.8020 c5         1 91K      -0.101400
      8 CAR          4.9850    -0.6300    -0.7610 c5         1 91K       0.101000
      9 NAQ          5.5240     0.1020     0.3880 n          1 91K      -0.467800
     10 CAP          5.0460     1.2490     0.8790 c          1 91K       0.668700
     11 OAZ          5.6090     1.8890     1.7620 o          1 91K      -0.604100
     12 CAO          3.7640     1.7590     0.2930 ca         1 91K      -0.095600
     13 CBA          2.5680     1.1010     0.5270 ca         1 91K      -0.156000
     14 CAN          3.7760     2.9480    -0.4300 ca         1 91K      -0.110000
     15 CAM          2.5830     3.4440    -0.9290 ca         1 91K      -0.115000
     16 CAL          1.3770     2.7950    -0.7040 ca         1 91K      -0.142000
     17 CAK          1.3640     1.6140     0.0370 ca         1 91K       0.140600
     18 NAJ          0.2130     0.8840     0.3380 nu         1 91K      -0.719300
     19 CAI         -1.0570     1.0900    -0.0650 cc         1 91K       0.754300
     20 SBB         -2.2970    -0.0210     0.4500 ss         1 91K      -0.268300
     21 NAH         -1.4800     2.0590    -0.8260 nd         1 91K      -0.736000
     22 CAG         -2.8130     1.9560    -1.0420 cd         1 91K       0.471200
     23 CAF         -3.4560     0.9100    -0.4530 cc         1 91K      -0.268000
     24 CAE         -4.8890     0.6270    -0.5810 c          1 91K       0.734700
     25 OBC         -5.6090     1.3330    -1.2660 o          1 91K      -0.582100
     26 NAD         -5.3590    -0.4520     0.0940 ns         1 91K      -0.498100
     27 CAC         -6.7130    -0.8360     0.0320 ca         1 91K       0.054600
     28 CAB         -7.6890    -0.1010     0.6990 ca         1 91K       0.040400
     29 CL1         -7.2300     1.2850     1.6230 cl         1 91K      -0.092400
     30 CBH         -9.0240    -0.4680     0.6540 ca         1 91K      -0.123000
     31 CBG         -9.3820    -1.5980    -0.0640 ca         1 91K      -0.119000
     32 CBF         -8.4190    -2.3450    -0.7240 ca         1 91K      -0.126000
     33 CBD         -7.0780    -1.9740    -0.6940 ca         1 91K      -0.067300
     34 CBE         -6.0390    -2.7780    -1.4160 c3         1 91K      -0.047800
     35 H2           8.2300    -3.2650    -0.6220 hc         1 91K       0.022700
     36 H3           7.5910    -3.1140     0.9900 hc         1 91K       0.022700
     37 H4           7.7060    -0.8600    -1.0630 hc         1 91K       0.064700
     38 H5           6.6950    -0.9460     1.7930 h1         1 91K       0.072200
     39 H6           7.5430     0.3540     0.9560 h1         1 91K       0.072200
     40 H7           5.9000    -2.3100    -1.8040 hc         1 91K       0.041700
     41 H8           5.4210    -2.6470    -0.1410 hc         1 91K       0.041700
     42 H9           5.0960    -0.0400    -1.6760 h1         1 91K       0.030700
     43 H10          3.9280    -0.8570    -0.6380 h1         1 91K       0.030700
     44 H11          2.5600     0.1820     1.1040 ha         1 91K       0.136000
     45 H12          4.7060     3.4720    -0.6090 ha         1 91K       0.150000
     46 H13          2.5830     4.3610    -1.5040 ha         1 91K       0.131000
     47 H14          0.4620     3.2070    -1.0990 ha         1 91K       0.165000
     48 H15          0.3700     0.0720     0.9160 hn         1 91K       0.452800
     49 H16         -3.3070     2.6920    -1.6600 h4         1 91K       0.058100
     50 H17         -4.7340    -1.0460     0.6190 hn         1 91K       0.328500
     51 H18         -9.7690     0.1170     1.1750 ha         1 91K       0.147000
     52 H19        -10.4210    -1.8970    -0.1040 ha         1 91K       0.134000
     53 H20         -8.7110    -3.2270    -1.2800 ha         1 91K       0.133000
     54 H21         -5.3710    -3.2880    -0.7190 hc         1 91K       0.046700
     55 H22         -6.5050    -3.5390    -2.0380 hc         1 91K       0.046700
     56 H23         -5.4170    -2.1510    -2.0560 hc         1 91K       0.046700
@<TRIPOS>BOND
     1     1     2 1   
     2     2     3 1   
     3     2     4 1   
     4     4     5 1   
     5     4    35 1   
     6     4    36 1   
     7     5     6 1   
     8     5     7 1   
     9     5    37 1   
    10     6     9 1   
    11     6    38 1   
    12     6    39 1   
    13     7     8 1   
    14     7    40 1   
    15     7    41 1   
    16     8     9 1   
    17     8    42 1   
    18     8    43 1   
    19     9    10 1   
    20    10    11 2   
    21    10    12 1   
    22    12    13 ar  
    23    12    14 ar  
    24    13    17 ar  
    25    13    44 1   
    26    14    15 ar  
    27    14    45 1   
    28    15    16 ar  
    29    15    46 1   
    30    16    17 ar  
    31    16    47 1   
    32    17    18 1   
    33    18    19 1   
    34    18    48 1   
    35    19    20 1   
    36    19    21 2   
    37    20    23 1   
    38    21    22 1   
    39    22    23 2   
    40    22    49 1   
    41    23    24 1   
    42    24    25 2   
    43    24    26 1   
    44    26    27 1   
    45    26    50 1   
    46    27    28 ar  
    47    27    33 ar  
    48    28    29 1   
    49    28    30 ar  
    50    30    31 ar  
    51    30    51 1   
    52    31    32 ar  
    53    31    52 1   
    54    32    33 ar  
    55    32    53 1   
    56    33    34 1   
    57    34    54 1   
    58    34    55 1   
    59    34    56 1   
@<TRIPOS>SUBSTRUCTURE
     1 91K         1 TEMP              0 ****  ****    0 ROOT
