@<TRIPOS>MOLECULE
91L
   29    31     1     0     0
SMALL
No Charge or Current Charge


@<TRIPOS>ATOM
      1 C01          2.7170    -0.0140    -0.0320 ca         1 91L      -0.166600
      2 C02          4.1520     0.4340     0.0220 c          1 91L       0.722600
      3 C05          1.6500     0.9080     0.0060 ca         1 91L       0.418000
      4 C07          0.2990     0.4530    -0.0460 ca         1 91L      -0.302600
      5 C08         -0.8710     1.4330    -0.0440 c          1 91L       0.603300
      6 C10         -2.2750     0.8810     0.0510 ca         1 91L      -0.099600
      7 C11         -3.3710     1.7690     0.1750 ca         1 91L      -0.084000
      8 C12         -4.6860     1.2850     0.2530 ca         1 91L      -0.111000
      9 C13         -4.9260    -0.0940     0.2060 ca         1 91L      -0.124000
     10 C14         -3.8510    -0.9870     0.0810 ca         1 91L      -0.073000
     11 C15         -2.5210    -0.5110     0.0040 ca         1 91L      -0.123600
     12 C16         -1.3860    -1.4870    -0.1310 c          1 91L       0.606300
     13 C18          0.0370    -0.9550    -0.1090 ca         1 91L      -0.236600
     14 C19          1.1270    -1.8570    -0.1400 ca         1 91L       0.167100
     15 C21          2.4420    -1.3910    -0.1040 ca         1 91L      -0.088000
     16 N06          1.9360     2.2380     0.1210 nv         1 91L      -0.777000
     17 O03          4.9230    -0.2080     0.7210 o          1 91L      -0.702500
     18 O04          4.5060     1.3740    -0.6770 o          1 91L      -0.702500
     19 O09         -0.7110     2.6460    -0.1480 o          1 91L      -0.620100
     20 O17         -1.6060    -2.6910    -0.2530 o          1 91L      -0.616100
     21 O20          0.9270    -3.2020    -0.2050 oh         1 91L      -0.560100
     22 H1          -3.2070     2.8440     0.2120 ha         1 91L       0.133000
     23 H2          -5.5170     1.9800     0.3490 ha         1 91L       0.104000
     24 H3          -5.9440    -0.4720     0.2660 ha         1 91L       0.104000
     25 H4          -4.0570    -2.0550     0.0460 ha         1 91L       0.129000
     26 H5           3.2590    -2.1080    -0.1300 ha         1 91L       0.153000
     27 H6           1.1650     2.8870    -0.0110 hn         1 91L       0.371500
     28 H7           2.8700     2.5420    -0.1390 hn         1 91L       0.371500
     29 H9          -0.0600    -3.3250    -0.2420 ho         1 91L       0.504000
@<TRIPOS>BOND
     1     1     2 1   
     2     1     3 ar  
     3     1    15 ar  
     4     2    17 1   
     5     2    18 1   
     6     3     4 ar  
     7     3    16 1   
     8     4     5 1   
     9     4    13 ar  
    10     5     6 1   
    11     5    19 2   
    12     6     7 ar  
    13     6    11 ar  
    14     7     8 ar  
    15     7    22 1   
    16     8     9 ar  
    17     8    23 1   
    18     9    10 ar  
    19     9    24 1   
    20    10    11 ar  
    21    10    25 1   
    22    11    12 1   
    23    12    13 1   
    24    12    20 2   
    25    13    14 ar  
    26    14    15 ar  
    27    14    21 1   
    28    15    26 1   
    29    16    27 1   
    30    16    28 1   
    31    21    29 1   
@<TRIPOS>SUBSTRUCTURE
     1 91L         1 TEMP              0 ****  ****    0 ROOT
