@<TRIPOS>MOLECULE
91L
   29    31     1     0     0
SMALL
bcc


@<TRIPOS>ATOM
      1 C01          2.6590    -0.0040    -0.0750 ca         1 91L      -0.166600
      2 C02          4.1430     0.3930    -0.0830 c          1 91L       0.933200
      3 C05          1.5810     0.9580    -0.0400 ca         1 91L       0.279600
      4 C07          0.2470     0.4800    -0.0190 ca         1 91L      -0.302600
      5 C08         -0.8630     1.4100     0.0300 c          1 91L       0.603300
      6 C10         -2.2450     0.8610     0.0620 ca         1 91L      -0.099600
      7 C11         -3.3230     1.7410     0.1200 ca         1 91L      -0.102000
      8 C12         -4.6200     1.2580     0.1510 ca         1 91L      -0.129000
      9 C13         -4.8590    -0.1130     0.1260 ca         1 91L      -0.142000
     10 C14         -3.7970    -0.9960     0.0680 ca         1 91L      -0.091000
     11 C15         -2.4890    -0.5140     0.0370 ca         1 91L      -0.123600
     12 C16         -1.3650    -1.4580    -0.0220 c          1 91L       0.606300
     13 C18         -0.0110    -0.9270    -0.0440 ca         1 91L      -0.236600
     14 C19          1.0460    -1.8270    -0.0870 ca         1 91L       0.167100
     15 C21          2.3660    -1.3360    -0.0990 ca         1 91L      -0.106000
     16 N06          1.8890     2.2550    -0.0300 nv         1 91L      -0.848200
     17 O03          4.9610    -0.5360    -0.1030 o          1 91L      -0.807800
     18 O04          4.4170     1.6150    -0.0660 o          1 91L      -0.807800
     19 O09         -0.7230     2.6340     0.0500 o          1 91L      -0.620100
     20 O17         -1.5820    -2.6750    -0.0510 o          1 91L      -0.616100
     21 O20          0.8930    -3.1490    -0.1150 oh         1 91L      -0.521100
     22 H1          -3.1470     2.8070     0.1400 ha         1 91L       0.151000
     23 H2          -5.4490     1.9500     0.1960 ha         1 91L       0.122000
     24 H3          -5.8740    -0.4880     0.1510 ha         1 91L       0.122000
     25 H4          -3.9770    -2.0620     0.0490 ha         1 91L       0.147000
     26 H5           3.1780    -2.0510    -0.1250 ha         1 91L       0.171000
     27 H6           1.1570     2.9430     0.0130 hn         1 91L       0.476300
     28 H7           2.8830     2.4740    -0.0340 hn         1 91L       0.476300
     29 H9          -0.0790    -3.3250    -0.1000 ho         1 91L       0.465000
@<TRIPOS>BOND
     1     1     2 1   
     2     1     3 ar  
     3     1    15 ar  
     4     2    17 1   
     5     2    18 1   
     6     3     4 ar  
     7     3    16 1   
     8     4     5 1   
     9     4    13 ar  
    10     5     6 1   
    11     5    19 2   
    12     6     7 ar  
    13     6    11 ar  
    14     7     8 ar  
    15     7    22 1   
    16     8     9 ar  
    17     8    23 1   
    18     9    10 ar  
    19     9    24 1   
    20    10    11 ar  
    21    10    25 1   
    22    11    12 1   
    23    12    13 1   
    24    12    20 2   
    25    13    14 ar  
    26    14    15 ar  
    27    14    21 1   
    28    15    26 1   
    29    16    27 1   
    30    16    28 1   
    31    21    29 1   
@<TRIPOS>SUBSTRUCTURE
     1 91L         1 TEMP              0 ****  ****    0 ROOT
