@<TRIPOS>MOLECULE
91M
   75    79     1     0     0
SMALL
No Charge or Current Charge


@<TRIPOS>ATOM
      1 C1         -19.8410    25.2860   -28.4490 c3         1 91M       0.080800
      2 C3         -18.6400    25.4190   -26.2420 c3         1 91M       0.080800
      3 O5         -22.1110    26.0240   -27.0410 o          1 91M      -0.616100
      4 C8         -22.7840    25.6790   -24.3450 c3         1 91M       0.064600
      5 C10        -23.6490    23.3970   -22.9000 c3         1 91M       0.110900
      6 C11        -24.3220    22.7490   -21.6770 ca         1 91M       0.015700
      7 C12        -23.6080    22.5380   -20.4570 ca         1 91M      -0.122600
      8 C13        -24.2960    22.0530   -19.3240 ca         1 91M      -0.055000
      9 C14        -25.6600    21.7450   -19.3870 ca         1 91M      -0.119000
     10 C15        -26.3530    21.9000   -20.5920 ca         1 91M      -0.066000
     11 C16        -25.7040    22.3870   -21.7480 cp         1 91M      -0.046000
     12 C19        -28.3580    23.4880   -24.2720 ca         1 91M      -0.087000
     13 C20        -28.0110    22.7200   -25.3960 ca         1 91M      -0.076000
     14 C21        -26.9200    21.8400   -25.3100 ca         1 91M      -0.096000
     15 O28        -21.3850    22.4340   -21.3940 os         1 91M      -0.462100
     16 C30        -19.4660    22.6890   -22.8090 c3         1 91M       0.027700
     17 C33        -19.6030    21.2820   -24.9160 c          1 91M       0.587100
     18 C35        -20.6000    20.2680   -25.5640 c5         1 91M       0.033700
     19 N2         -19.9270    25.3520   -26.9720 n          1 91M      -0.404800
     20 C4         -21.1550    25.6880   -26.3480 c          1 91M       0.595100
     21 C6         -21.3050    25.5230   -24.7970 c3         1 91M       0.043700
     22 S9         -23.0960    25.1430   -22.5870 ss         1 91M      -0.437000
     23 C17        -26.4990    22.4930   -23.0090 cp         1 91M      -0.011000
     24 C18        -27.6070    23.3730   -23.0870 ca         1 91M      -0.070000
     25 N22        -26.4730    21.0290   -26.3270 nc         1 91M       0.024000
     26 O23        -25.3720    20.3680   -25.6940 os         1 91M      -0.048000
     27 N24        -25.1720    20.7780   -24.3310 nc         1 91M       0.025000
     28 C25        -26.1760    21.7120   -24.1500 ca         1 91M      -0.094000
     29 C26        -22.1250    22.7860   -20.2970 c          1 91M       0.616700
     30 O27        -21.6330    23.2160   -19.2620 o          1 91M      -0.476000
     31 C29        -19.9480    22.5510   -21.3490 c3         1 91M       0.160600
     32 N32        -20.0660    21.6360   -23.6680 ns         1 91M      -0.498900
     33 O34        -18.5800    21.7470   -25.3990 o          1 91M      -0.597100
     34 C37        -19.8690    18.9680   -26.0180 c5         1 91M      -0.075400
     35 C38        -19.4790    19.2880   -27.4860 c5         1 91M      -0.092400
     36 C39        -20.7530    19.9900   -28.0230 c5         1 91M       0.110000
     37 N40        -21.1840    20.7590   -26.8370 n          1 91M      -0.404800
     38 C41        -22.0850    21.8390   -26.8680 c          1 91M       0.617100
     39 O42        -22.3550    22.4410   -25.8380 o          1 91M      -0.655100
     40 C43        -22.7100    22.2460   -28.1980 c3         1 91M      -0.169100
     41 C44        -19.7950    24.1240   -23.3070 c          1 91M       0.591100
     42 O45        -19.2460    25.1080   -22.8290 o          1 91M      -0.611100
     43 N46        -20.7190    24.2430   -24.3280 ns         1 91M      -0.494900
     44 H1         -18.9230    24.7680   -28.7530 h1         1 91M       0.046867
     45 H2         -20.7010    24.7360   -28.8510 h1         1 91M       0.046867
     46 H3         -19.8360    26.3020   -28.8650 h1         1 91M       0.046867
     47 H4         -18.6940    26.1610   -25.4350 h1         1 91M       0.046867
     48 H5         -18.4010    24.4360   -25.8190 h1         1 91M       0.046867
     49 H6         -17.8320    25.7130   -26.9230 h1         1 91M       0.046867
     50 H7         -23.0800    26.7310   -24.4550 h1         1 91M       0.087700
     51 H8         -23.4320    25.0880   -25.0060 h1         1 91M       0.087700
     52 H9         -24.3450    23.4440   -23.7430 h1         1 91M       0.080200
     53 H10        -22.8100    22.7850   -23.2440 h1         1 91M       0.080200
     54 H11        -23.7640    21.8990   -18.3870 ha         1 91M       0.136000
     55 H12        -26.1750    21.3660   -18.5070 ha         1 91M       0.125000
     56 H13        -27.4060    21.6320   -20.6390 ha         1 91M       0.121000
     57 H15        -28.5830    22.8040   -26.3180 ha         1 91M       0.144000
     58 H16        -18.3740    22.5920   -22.8340 h1         1 91M       0.107700
     59 H17        -21.3900    20.0260   -24.8400 h1         1 91M       0.075700
     60 H18        -20.7380    26.3490   -24.3540 h1         1 91M       0.098700
     61 H19        -27.8760    23.9750   -22.2220 ha         1 91M       0.133000
     62 H20        -19.5020    21.6610   -20.8850 h1         1 91M       0.079700
     63 H21        -19.6250    23.4330   -20.7790 h1         1 91M       0.079700
     64 H22        -20.9190    21.1920   -23.3440 hn         1 91M       0.334500
     65 H23        -20.5510    18.1100   -25.9800 hc         1 91M       0.061700
     66 H24        -19.0060    18.7190   -25.3900 hc         1 91M       0.061700
     67 H25        -19.2230    18.3920   -28.0620 hc         1 91M       0.067200
     68 H26        -18.6140    19.9590   -27.5300 hc         1 91M       0.067200
     69 H27        -21.5240    19.2640   -28.3130 h1         1 91M       0.051200
     70 H28        -20.5260    20.6280   -28.8860 h1         1 91M       0.051200
     71 H29        -23.4250    23.0690   -28.0870 hc         1 91M       0.067700
     72 H30        -21.9130    22.5050   -28.9030 hc         1 91M       0.067700
     73 H31        -23.1700    21.3680   -28.6650 hc         1 91M       0.067700
     74 H32        -21.1270    23.3810   -24.6840 hn         1 91M       0.356500
     75 H14        -29.2020    24.1730   -24.3180 ha         1 91M       0.127000
@<TRIPOS>BOND
     1     1    19 1   
     2     1    44 1   
     3     1    45 1   
     4     1    46 1   
     5     2    19 1   
     6     2    47 1   
     7     2    48 1   
     8     2    49 1   
     9     3    20 2   
    10     4    21 1   
    11     4    22 1   
    12     4    50 1   
    13     4    51 1   
    14     5     6 1   
    15     5    22 1   
    16     5    52 1   
    17     5    53 1   
    18     6     7 ar  
    19     6    11 ar  
    20     7     8 ar  
    21     7    29 1   
    22     8     9 ar  
    23     8    54 1   
    24     9    10 ar  
    25     9    55 1   
    26    10    11 ar  
    27    10    56 1   
    28    11    23 1   
    29    12    13 ar  
    30    12    24 ar  
    31    12    75 1   
    32    13    14 ar  
    33    13    57 1   
    34    14    25 2   
    35    14    28 ar  
    36    15    29 1   
    37    15    31 1   
    38    16    31 1   
    39    16    32 1   
    40    16    41 1   
    41    16    58 1   
    42    17    18 1   
    43    17    32 1   
    44    17    33 2   
    45    18    34 1   
    46    18    37 1   
    47    18    59 1   
    48    19    20 1   
    49    20    21 1   
    50    21    43 1   
    51    21    60 1   
    52    23    24 ar  
    53    23    28 ar  
    54    24    61 1   
    55    25    26 1   
    56    26    27 1   
    57    27    28 2   
    58    29    30 2   
    59    31    62 1   
    60    31    63 1   
    61    32    64 1   
    62    34    35 1   
    63    34    65 1   
    64    34    66 1   
    65    35    36 1   
    66    35    67 1   
    67    35    68 1   
    68    36    37 1   
    69    36    69 1   
    70    36    70 1   
    71    37    38 1   
    72    38    39 2   
    73    38    40 1   
    74    40    71 1   
    75    40    72 1   
    76    40    73 1   
    77    41    42 2   
    78    41    43 1   
    79    43    74 1   
@<TRIPOS>SUBSTRUCTURE
     1 91M         1 TEMP              0 ****  ****    0 ROOT
