@<TRIPOS>MOLECULE
91M
   75    79     1     0     0
SMALL
abcg2


@<TRIPOS>ATOM
      1 C1         -20.0470    25.3980   -28.3690 c3         1 91M       0.080800
      2 C3         -19.0380    25.3910   -26.1300 c3         1 91M       0.080800
      3 O5         -22.5100    25.5190   -27.1510 o          1 91M      -0.616100
      4 C8         -23.1690    25.3230   -24.5420 c3         1 91M       0.064600
      5 C10        -23.8840    23.1720   -22.8960 c3         1 91M       0.110900
      6 C11        -24.4530    22.6950   -21.5910 ca         1 91M       0.015700
      7 C12        -23.6640    22.4390   -20.4520 ca         1 91M      -0.122600
      8 C13        -24.2680    22.0830   -19.2430 ca         1 91M      -0.055000
      9 C14        -25.6420    21.9640   -19.1400 ca         1 91M      -0.119000
     10 C15        -26.4310    22.2220   -20.2520 ca         1 91M      -0.066000
     11 C16        -25.8500    22.5890   -21.4650 cp         1 91M      -0.046000
     12 C19        -28.4120    24.2820   -23.7700 ca         1 91M      -0.087000
     13 C20        -28.5480    23.4450   -24.8340 ca         1 91M      -0.076000
     14 C21        -27.7670    22.2580   -24.8070 ca         1 91M      -0.096000
     15 O28        -21.5450    22.2340   -21.5230 os         1 91M      -0.462100
     16 C30        -19.6950    22.5930   -22.9870 c3         1 91M       0.027700
     17 C33        -19.5070    21.2540   -25.0250 c          1 91M       0.587100
     18 C35        -20.1490    20.1400   -25.8520 c5         1 91M       0.033700
     19 N2         -20.2580    25.4030   -26.9270 n          1 91M      -0.404800
     20 C4         -21.5130    25.4070   -26.4340 c          1 91M       0.595100
     21 C6         -21.6810    25.2490   -24.9060 c3         1 91M       0.043700
     22 S9         -23.5420    24.9760   -22.7930 ss         1 91M      -0.437000
     23 C17        -26.7510    22.8800   -22.6110 cp         1 91M      -0.011000
     24 C18        -27.5260    24.0020   -22.6740 ca         1 91M      -0.070000
     25 N22        -27.6890    21.2700   -25.6710 nc         1 91M       0.024000
     26 O23        -26.7860    20.3960   -25.1310 os         1 91M      -0.048000
     27 N24        -26.2920    20.8250   -23.9310 nc         1 91M       0.025000
     28 C25        -26.8840    21.9780   -23.7100 ca         1 91M      -0.094000
     29 C26        -22.1740    22.5530   -20.3840 c          1 91M       0.616700
     30 O27        -21.5830    22.8640   -19.3730 o          1 91M      -0.476000
     31 C29        -20.1020    22.3410   -21.5480 c3         1 91M       0.160600
     32 N32        -20.1050    21.5020   -23.8400 ns         1 91M      -0.498900
     33 O34        -18.5200    21.8700   -25.4140 o          1 91M      -0.597100
     34 C37        -19.1910    18.9620   -26.0980 c5         1 91M      -0.075400
     35 C38        -18.5420    19.2770   -27.4500 c5         1 91M      -0.092400
     36 C39        -19.6640    19.9470   -28.2400 c5         1 91M       0.110000
     37 N40        -20.4500    20.6270   -27.1990 n          1 91M      -0.404800
     38 C41        -21.3770    21.5790   -27.3900 c          1 91M       0.617100
     39 O42        -21.9610    22.1040   -26.4280 o          1 91M      -0.655100
     40 C43        -21.6730    21.9820   -28.8100 c3         1 91M      -0.169100
     41 C44        -20.2090    23.9790   -23.4210 c          1 91M       0.591100
     42 O45        -19.8110    24.9700   -22.8120 o          1 91M      -0.611100
     43 N46        -21.0690    24.0160   -24.4480 ns         1 91M      -0.494900
     44 H1         -19.3710    24.5810   -28.6310 h1         1 91M       0.046867
     45 H2         -20.9960    25.2610   -28.8750 h1         1 91M       0.046867
     46 H3         -19.5960    26.3400   -28.6900 h1         1 91M       0.046867
     47 H4         -19.2100    25.7780   -25.1310 h1         1 91M       0.046867
     48 H5         -18.6280    24.3810   -26.0550 h1         1 91M       0.046867
     49 H6         -18.3060    26.0340   -26.6190 h1         1 91M       0.046867
     50 H7         -23.5370    26.3260   -24.7470 h1         1 91M       0.087700
     51 H8         -23.7480    24.6300   -25.1480 h1         1 91M       0.087700
     52 H9         -24.6010    23.0430   -23.7000 h1         1 91M       0.080200
     53 H10        -22.9740    22.6510   -23.1580 h1         1 91M       0.080200
     54 H11        -23.6390    21.8970   -18.3840 ha         1 91M       0.136000
     55 H12        -26.0970    21.6760   -18.2020 ha         1 91M       0.125000
     56 H13        -27.5080    22.1380   -20.1890 ha         1 91M       0.121000
     57 H15        -29.2110    23.6570   -25.6610 ha         1 91M       0.144000
     58 H16        -18.6070    22.6610   -23.0130 h1         1 91M       0.107700
     59 H17        -21.0700    19.8160   -25.3660 h1         1 91M       0.075700
     60 H18        -21.1610    26.0630   -24.4040 h1         1 91M       0.098700
     61 H19        -27.4680    24.7230   -21.8690 ha         1 91M       0.133000
     62 H20        -19.6800    21.4060   -21.1810 h1         1 91M       0.079700
     63 H21        -19.7820    23.1640   -20.9180 h1         1 91M       0.079700
     64 H22        -20.9700    21.0280   -23.6260 hn         1 91M       0.334500
     65 H23        -19.7760    18.0440   -26.1610 hc         1 91M       0.061700
     66 H24        -18.4680    18.8480   -25.2920 hc         1 91M       0.061700
     67 H25        -18.1650    18.3870   -27.9520 hc         1 91M       0.067200
     68 H26        -17.7160    19.9760   -27.3160 hc         1 91M       0.067200
     69 H27        -20.2860    19.2100   -28.7560 h1         1 91M       0.051200
     70 H28        -19.2950    20.6620   -28.9730 h1         1 91M       0.051200
     71 H29        -22.4840    22.7040   -28.8090 hc         1 91M       0.067700
     72 H30        -20.7910    22.4340   -29.2670 hc         1 91M       0.067700
     73 H31        -21.9490    21.1150   -29.4130 hc         1 91M       0.067700
     74 H32        -21.3250    23.1650   -24.9410 hn         1 91M       0.356500
     75 H14        -28.9820    25.2010   -23.7360 ha         1 91M       0.127000
@<TRIPOS>BOND
     1     1    19 1   
     2     1    44 1   
     3     1    45 1   
     4     1    46 1   
     5     2    19 1   
     6     2    47 1   
     7     2    48 1   
     8     2    49 1   
     9     3    20 2   
    10     4    21 1   
    11     4    22 1   
    12     4    50 1   
    13     4    51 1   
    14     5     6 1   
    15     5    22 1   
    16     5    52 1   
    17     5    53 1   
    18     6     7 ar  
    19     6    11 ar  
    20     7     8 ar  
    21     7    29 1   
    22     8     9 ar  
    23     8    54 1   
    24     9    10 ar  
    25     9    55 1   
    26    10    11 ar  
    27    10    56 1   
    28    11    23 1   
    29    12    13 ar  
    30    12    24 ar  
    31    12    75 1   
    32    13    14 ar  
    33    13    57 1   
    34    14    25 2   
    35    14    28 ar  
    36    15    29 1   
    37    15    31 1   
    38    16    31 1   
    39    16    32 1   
    40    16    41 1   
    41    16    58 1   
    42    17    18 1   
    43    17    32 1   
    44    17    33 2   
    45    18    34 1   
    46    18    37 1   
    47    18    59 1   
    48    19    20 1   
    49    20    21 1   
    50    21    43 1   
    51    21    60 1   
    52    23    24 ar  
    53    23    28 ar  
    54    24    61 1   
    55    25    26 1   
    56    26    27 1   
    57    27    28 2   
    58    29    30 2   
    59    31    62 1   
    60    31    63 1   
    61    32    64 1   
    62    34    35 1   
    63    34    65 1   
    64    34    66 1   
    65    35    36 1   
    66    35    67 1   
    67    35    68 1   
    68    36    37 1   
    69    36    69 1   
    70    36    70 1   
    71    37    38 1   
    72    38    39 2   
    73    38    40 1   
    74    40    71 1   
    75    40    72 1   
    76    40    73 1   
    77    41    42 2   
    78    41    43 1   
    79    43    74 1   
@<TRIPOS>SUBSTRUCTURE
     1 91M         1 TEMP              0 ****  ****    0 ROOT
