@<TRIPOS>MOLECULE
91O
   40    41     1     0     0
SMALL
bcc


@<TRIPOS>ATOM
      1 C23          4.0450     1.1640     0.0780 ca         1 91O       0.185100
      2 C22          2.6520     1.1580     0.0950 ca         1 91O      -0.289000
      3 C21         -4.6130    -1.1520     0.5050 ca         1 91O      -0.048500
      4 C20         -5.9890    -1.1240     0.5650 ca         1 91O      -0.212500
      5 C19         -8.7790     1.1160    -0.0740 c3         1 91O       0.127700
      6 C10         -0.2570     1.0240    -0.3680 c2         1 91O       0.195000
      7 C12         -2.3960    -0.1360     0.0320 c          1 91O       0.606900
      8 C11         -1.6180     1.0240    -0.3300 ce         1 91O      -0.452200
      9 C14         -3.8780    -0.0410     0.0730 ca         1 91O      -0.177600
     10 C25          4.0570     3.4950     0.5390 c3         1 91O       0.124700
     11 C15         -4.5880     1.0970    -0.3010 ca         1 91O      -0.048500
     12 C01          4.7580    -0.0370    -0.1100 ca         1 91O      -0.157600
     13 C02          6.2790    -0.1540    -0.1850 c          1 91O       0.932200
     14 C05          4.0160    -1.2010    -0.2500 ca         1 91O      -0.054000
     15 C06          2.6340    -1.2040    -0.2560 ca         1 91O      -0.054600
     16 C08          1.9260    -0.0160    -0.0960 ca         1 91O       0.150600
     17 C16         -5.9730     1.1430    -0.2510 ca         1 91O      -0.212500
     18 C17         -6.6870     0.0290     0.1850 ca         1 91O       0.150100
     19 N09          0.5390    -0.0260    -0.1030 nu         1 91O      -0.603400
     20 O03          6.7420    -1.2910     0.0320 o          1 91O      -0.810800
     21 O04          6.9240     0.8660    -0.4790 o          1 91O      -0.810800
     22 O13         -1.8550    -1.2120     0.3140 o          1 91O      -0.611100
     23 O18         -8.0220    -0.0300     0.2740 os         1 91O      -0.320900
     24 O24          4.7460     2.2870     0.2880 os         1 91O      -0.257900
     25 CL7          1.7800    -2.7020    -0.4780 cl         1 91O      -0.143400
     26 H1           2.1100     2.0710     0.2950 ha         1 91O       0.119000
     27 H2          -4.0950    -2.0530     0.8060 ha         1 91O       0.144000
     28 H3          -6.5390    -1.9920     0.9060 ha         1 91O       0.135000
     29 H4          -9.8220     0.8530     0.0810 h1         1 91O       0.038367
     30 H5          -8.5320     1.9720     0.5580 h1         1 91O       0.038367
     31 H6          -8.6370     1.3950    -1.1210 h1         1 91O       0.038367
     32 H7           0.2470     1.9390    -0.6540 h4         1 91O       0.133000
     33 H8          -2.0980     1.9530    -0.5950 ha         1 91O       0.131000
     34 H10          3.4290     3.7950    -0.3050 h1         1 91O       0.026700
     35 H11          3.4380     3.4390     1.4380 h1         1 91O       0.026700
     36 H12          4.8200     4.2550     0.6900 h1         1 91O       0.026700
     37 H13         -4.0770     1.9830    -0.6520 ha         1 91O       0.144000
     38 H14          4.5480    -2.1350    -0.3720 ha         1 91O       0.173000
     39 H15         -6.4730     2.0510    -0.5590 ha         1 91O       0.135000
     40 H9           0.0520    -0.8960     0.0890 hn         1 91O       0.484800
@<TRIPOS>BOND
     1     1     2 ar  
     2     1    12 ar  
     3     1    24 1   
     4     2    16 ar  
     5     2    26 1   
     6     3     4 ar  
     7     3     9 ar  
     8     3    27 1   
     9     4    18 ar  
    10     4    28 1   
    11     5    23 1   
    12     5    29 1   
    13     5    30 1   
    14     5    31 1   
    15     6     8 2   
    16     6    19 1   
    17     6    32 1   
    18     7     8 1   
    19     7     9 1   
    20     7    22 2   
    21     8    33 1   
    22     9    11 ar  
    23    10    24 1   
    24    10    34 1   
    25    10    35 1   
    26    10    36 1   
    27    11    17 ar  
    28    11    37 1   
    29    12    13 1   
    30    12    14 ar  
    31    13    20 1   
    32    13    21 1   
    33    14    15 ar  
    34    14    38 1   
    35    15    16 ar  
    36    15    25 1   
    37    16    19 1   
    38    17    18 ar  
    39    17    39 1   
    40    18    23 1   
    41    19    40 1   
@<TRIPOS>SUBSTRUCTURE
     1 91O         1 TEMP              0 ****  ****    0 ROOT
