@<TRIPOS>MOLECULE
91O
   40    41     1     0     0
SMALL
No Charge or Current Charge


@<TRIPOS>ATOM
      1 C23          3.9610     1.2010     0.2700 ca         1 91O       0.185100
      2 C22          2.5760     1.2570    -0.0070 ca         1 91O      -0.271000
      3 C21         -4.6310    -1.3870    -0.3390 ca         1 91O      -0.030500
      4 C20         -5.9880    -1.2850     0.0120 ca         1 91O      -0.194500
      5 C19         -8.5990     1.2380     0.8490 c3         1 91O       0.150900
      6 C10         -0.3090     1.1000    -1.0520 c2         1 91O       0.145000
      7 C12         -2.3740    -0.3670    -0.8430 c          1 91O       0.606900
      8 C11         -1.6120     0.8450    -1.2770 ce         1 91O      -0.502200
      9 C14         -3.8330    -0.2290    -0.4680 ca         1 91O      -0.177600
     10 C25          4.1500     3.6660     0.3300 c3         1 91O       0.147900
     11 C15         -4.4240     1.0320    -0.2200 ca         1 91O      -0.030500
     12 C01          4.5960    -0.0510     0.4030 ca         1 91O      -0.157600
     13 C02          6.0640    -0.1460     0.6930 c          1 91O       0.721600
     14 C05          3.8410    -1.2340     0.2770 ca         1 91O      -0.036000
     15 C06          2.4670    -1.1740     0.0010 ca         1 91O       0.037000
     16 C08          1.8300     0.0760    -0.1510 ca         1 91O       0.289000
     17 C16         -5.7820     1.1300     0.1320 ca         1 91O      -0.194500
     18 C17         -6.5710    -0.0330     0.2460 ca         1 91O       0.150100
     19 N09          0.4600     0.1380    -0.4220 nu         1 91O      -0.797000
     20 O03          6.4090    -0.8140     1.6570 o          1 91O      -0.705500
     21 O04          6.8490     0.3500    -0.1020 o          1 91O      -0.705500
     22 O13         -1.7950    -1.4380    -0.6970 o          1 91O      -0.611100
     23 O18         -7.9080     0.0030     0.5880 os         1 91O      -0.344100
     24 O24          4.7120     2.3480     0.4440 os         1 91O      -0.281100
     25 Cl7          1.5570    -2.6830    -0.1510 cl         1 91O      -0.235000
     26 H1           2.0700     2.2110    -0.0990 ha         1 91O       0.101000
     27 H2          -4.2030    -2.3720    -0.5170 ha         1 91O       0.126000
     28 H3          -6.5910    -2.1850     0.1020 ha         1 91O       0.117000
     29 H4          -9.6480     1.0400     1.1000 h1         1 91O       0.038367
     30 H5          -8.1420     1.7690     1.6940 h1         1 91O       0.038367
     31 H6          -8.5770     1.8910    -0.0330 h1         1 91O       0.038367
     32 H7           0.1880     2.0300    -1.3510 h4         1 91O       0.183000
     33 H8          -2.2130     1.6270    -1.7330 ha         1 91O       0.181000
     34 H10          3.7310     3.8260    -0.6720 h1         1 91O       0.026700
     35 H11          3.3580     3.8170     1.0740 h1         1 91O       0.026700
     36 H12          4.9250     4.4240     0.5000 h1         1 91O       0.026700
     37 H13         -3.8380     1.9460    -0.2780 ha         1 91O       0.126000
     38 H14          4.3240    -2.2020     0.3880 ha         1 91O       0.155000
     39 H15         -6.2000     2.1150     0.3160 ha         1 91O       0.117000
     40 H9          -0.0170    -0.7720    -0.3610 hn         1 91O       0.540000
@<TRIPOS>BOND
     1     1     2 ar  
     2     1    12 ar  
     3     1    24 1   
     4     2    16 ar  
     5     2    26 1   
     6     3     4 ar  
     7     3     9 ar  
     8     3    27 1   
     9     4    18 ar  
    10     4    28 1   
    11     5    23 1   
    12     5    29 1   
    13     5    30 1   
    14     5    31 1   
    15     6     8 2   
    16     6    19 1   
    17     6    32 1   
    18     7     8 1   
    19     7     9 1   
    20     7    22 2   
    21     8    33 1   
    22     9    11 ar  
    23    10    24 1   
    24    10    34 1   
    25    10    35 1   
    26    10    36 1   
    27    11    17 ar  
    28    11    37 1   
    29    12    13 1   
    30    12    14 ar  
    31    13    20 1   
    32    13    21 1   
    33    14    15 ar  
    34    14    38 1   
    35    15    16 ar  
    36    15    25 1   
    37    16    19 1   
    38    17    18 ar  
    39    17    39 1   
    40    18    23 1   
    41    19    40 1   
@<TRIPOS>SUBSTRUCTURE
     1 91O         1 TEMP              0 ****  ****    0 ROOT
