@<TRIPOS>MOLECULE
91P
   76    80     1     0     0
SMALL
abcg2


@<TRIPOS>ATOM
      1 C22         -2.8710    13.1520   -21.3780 c3         1 91P       0.214600
      2 C26         -4.7640    14.9230   -23.0950 c5         1 91P       0.130300
      3 C28         -3.8130    15.4400   -22.0150 c5         1 91P       0.106300
      4 C03          0.2190    10.9170   -24.9630 cc         1 91P       0.026700
      5 C05          1.6680    12.0180   -23.2480 c5         1 91P       0.297300
      6 C07          2.0980    10.1740   -21.8940 c5         1 91P       0.110300
      7 C08          1.0380     9.0910   -21.8780 c3         1 91P       0.223600
      8 C23         -2.6650    14.4460   -22.1560 c5         1 91P       0.096300
      9 C25         -3.7780    14.5440   -24.2060 c5         1 91P       0.328700
     10 C31         -4.0870    12.1670   -24.6910 cc         1 91P       0.044600
     11 C32         -4.5680    11.1510   -25.4340 cd         1 91P      -0.502600
     12 C33         -5.2570    11.5100   -26.6330 cd         1 91P       0.777500
     13 C35         -4.9040    13.7780   -26.2700 c          1 91P       0.723400
     14 C38          1.8380    11.3610   -20.9710 c5         1 91P       0.113300
     15 C40          1.0300    12.2980   -21.8770 c5         1 91P       0.196300
     16 C42          0.1210    13.1100   -24.9450 cc         1 91P       0.238400
     17 C43         -0.7040    12.6310   -25.9360 cd         1 91P      -0.375600
     18 C44         -1.4180    13.5350   -26.7730 c          1 91P       0.635600
     19 C47         -0.3540    15.2320   -25.3420 cd         1 91P       0.773800
     20 N02         -0.6150    11.2570   -25.9210 na         1 91P       0.039300
     21 N04          0.6850    12.0100   -24.3480 na         1 91P       0.041000
     22 N30         -4.2450    13.4590   -25.0660 n          1 91P      -0.333000
     23 N34         -5.4070    12.7640   -27.0050 nc         1 91P      -0.799100
     24 N37         -5.7610    10.5520   -27.4120 nv         1 91P      -1.053200
     25 N46         -1.1810    14.8460   -26.3610 ns         1 91P      -0.444400
     26 N48          0.3480    14.3790   -24.6270 nc         1 91P      -0.656100
     27 O06          2.2460    10.7590   -23.1970 os         1 91P      -0.482000
     28 O09         -0.2140     9.6280   -22.2350 os         1 91P      -0.633400
     29 O11         -2.7010     9.6840   -22.4470 o          1 91P      -0.862500
     30 O12         -1.4750     7.4020   -22.0840 o          1 91P      -0.862500
     31 O13         -1.5730     9.0280   -20.1910 os         1 91P      -0.734800
     32 O15         -1.6940     9.5660   -17.7590 o          1 91P      -0.859000
     33 O16         -3.6520    10.2910   -19.3170 o          1 91P      -0.859000
     34 O17         -1.3420    11.4140   -19.4990 os         1 91P      -0.750800
     35 O19         -2.1430    13.0230   -17.6320 o          1 91P      -0.844500
     36 O20         -0.3900    13.7290   -19.4170 o          1 91P      -0.844500
     37 O21         -2.8700    13.3970   -19.9920 os         1 91P      -0.597400
     38 O24         -2.6030    14.1500   -23.5560 os         1 91P      -0.484000
     39 O27         -5.7100    15.8280   -23.5710 oh         1 91P      -0.692000
     40 O29         -3.4310    16.7450   -22.3660 oh         1 91P      -0.733000
     41 O36         -5.0080    14.9490   -26.6050 o          1 91P      -0.583000
     42 O39          3.0320    12.0180   -20.6240 oh         1 91P      -0.710000
     43 O41          1.0770    13.6420   -21.5540 oh         1 91P      -0.785000
     44 P10         -1.6170     8.8660   -21.8240 p5         1 91P       1.493800
     45 P14         -2.1980    10.0560   -19.0760 p5         1 91P       1.538800
     46 P18         -1.6250    12.9520   -19.0270 p5         1 91P       1.496800
     47 H221        -3.8360    12.7000   -21.6270 h1         1 91P       0.056200
     48 H222        -2.1070    12.4320   -21.6810 h1         1 91P       0.056200
     49 H261        -5.2440    14.0090   -22.7200 h1         1 91P       0.071700
     50 H281        -4.2630    15.4030   -21.0150 h1         1 91P       0.092700
     51 H011        -1.0240     9.3190   -26.5300 h1         1 91P       0.076033
     52 H013        -2.3570    10.4650   -26.7490 h1         1 91P       0.076033
     53 H012        -0.9560    10.5130   -27.8410 h1         1 91P       0.076033
     54 H031         0.4910     9.9020   -24.7340 h5         1 91P       0.242000
     55 H051         2.4040    12.7850   -23.5090 h2         1 91P       0.099700
     56 H071         3.0480     9.6900   -21.6450 h1         1 91P       0.047700
     57 H082         1.0330     8.6580   -20.8710 h1         1 91P       0.034200
     58 H081         1.3280     8.2920   -22.5690 h1         1 91P       0.034200
     59 H231        -1.7070    14.8860   -21.8620 h1         1 91P       0.095700
     60 H251        -3.5950    15.4010   -24.8570 h2         1 91P       0.089700
     61 H311        -3.5450    11.9680   -23.7790 h4         1 91P       0.275000
     62 H321        -4.4270    10.1250   -25.1290 ha         1 91P       0.232000
     63 H381         1.2670    11.0650   -20.0850 h1         1 91P       0.131700
     64 H401         0.0060    11.9180   -21.9000 h1         1 91P       0.098700
     65 H371        -6.2580    10.7930   -28.2530 hn         1 91P       0.490000
     66 H372        -5.6960     9.5810   -27.1620 hn         1 91P       0.490000
     67 H461        -1.6760    15.5600   -26.8850 hn         1 91P       0.336500
     68 H491         0.3300    16.8390   -24.3310 hn         1 91P       0.518000
     69 H492        -0.7710    17.2320   -25.5980 hn         1 91P       0.518000
     70 H271        -6.3870    15.9470   -22.8970 ho         1 91P       0.503000
     71 H291        -2.7830    17.0530   -21.7250 ho         1 91P       0.505000
     72 H391         3.5330    11.4430   -20.0360 ho         1 91P       0.484000
     73 H411         0.5110    13.7430   -20.7440 ho         1 91P       0.621000
     74 N49         -0.2610    16.5330   -25.0850 nv         1 91P      -1.045200
     75 C01         -1.2820    10.3330   -26.8210 c3         1 91P       0.055900
     76 O45         -2.1350    13.2780   -27.7200 o          1 91P      -0.524000
@<TRIPOS>BOND
     1     1     8 1   
     2     1    37 1   
     3     1    47 1   
     4     1    48 1   
     5     2     3 1   
     6     2     9 1   
     7     2    39 1   
     8     2    49 1   
     9     3     8 1   
    10     3    40 1   
    11     3    50 1   
    12     4    20 2   
    13     4    21 1   
    14     4    54 1   
    15     5    15 1   
    16     5    21 1   
    17     5    27 1   
    18     5    55 1   
    19     6     7 1   
    20     6    14 1   
    21     6    27 1   
    22     6    56 1   
    23     7    28 1   
    24     7    57 1   
    25     7    58 1   
    26     8    38 1   
    27     8    59 1   
    28     9    22 1   
    29     9    38 1   
    30     9    60 1   
    31    10    11 2   
    32    10    22 1   
    33    10    61 1   
    34    11    12 1   
    35    11    62 1   
    36    12    23 2   
    37    12    24 1   
    38    13    22 1   
    39    13    23 1   
    40    13    41 2   
    41    14    15 1   
    42    14    42 1   
    43    14    63 1   
    44    15    43 1   
    45    15    64 1   
    46    16    17 2   
    47    16    21 1   
    48    16    26 1   
    49    17    18 1   
    50    17    20 1   
    51    18    25 1   
    52    18    76 2   
    53    19    25 1   
    54    19    26 2   
    55    19    74 1   
    56    20    75 1   
    57    24    65 1   
    58    24    66 1   
    59    25    67 1   
    60    28    44 1   
    61    29    44 1   
    62    30    44 1   
    63    31    44 1   
    64    31    45 1   
    65    32    45 1   
    66    33    45 1   
    67    34    45 1   
    68    34    46 1   
    69    35    46 1   
    70    36    46 1   
    71    37    46 1   
    72    39    70 1   
    73    40    71 1   
    74    42    72 1   
    75    43    73 1   
    76    51    75 1   
    77    52    75 1   
    78    53    75 1   
    79    68    74 1   
    80    69    74 1   
@<TRIPOS>SUBSTRUCTURE
     1 91P         1 TEMP              0 ****  ****    0 ROOT
