@<TRIPOS>MOLECULE
91P
   76    80     1     0     0
SMALL
No Charge or Current Charge


@<TRIPOS>ATOM
      1 C22         -3.3430    11.2120   -21.4630 c3         1 91P       0.214600
      2 C26         -5.0100    14.1150   -23.1010 c5         1 91P       0.130300
      3 C28         -4.3530    13.6540   -21.7560 c5         1 91P       0.106300
      4 C03         -0.4360    11.2270   -24.0700 cc         1 91P       0.026700
      5 C05          1.2700    12.7570   -22.9560 c5         1 91P       0.297300
      6 C07          2.6040    11.4120   -21.5170 c5         1 91P       0.110300
      7 C08          2.1670     9.9260   -21.3080 c3         1 91P       0.223600
      8 C23         -3.2950    12.5730   -22.2130 c5         1 91P       0.096300
      9 C25         -3.9090    13.6720   -24.1130 c5         1 91P       0.328700
     10 C31         -5.4470    12.6180   -25.7750 cc         1 91P       0.044600
     11 C32         -6.0180    12.6250   -27.0270 cd         1 91P      -0.502600
     12 C33         -5.5870    13.6200   -27.9240 cd         1 91P       0.777500
     13 C35         -4.1160    14.5530   -26.4210 c          1 91P       0.723400
     14 C38          1.8990    12.5000   -20.6330 c5         1 91P       0.113300
     15 C40          0.6450    12.8120   -21.5240 c5         1 91P       0.196300
     16 C42          0.1210    13.0770   -25.2100 cc         1 91P       0.238400
     17 C43         -0.7890    12.3910   -25.9710 cd         1 91P      -0.375600
     18 C44         -1.2310    12.8800   -27.2790 c          1 91P       0.635600
     19 C47          0.2170    14.6870   -26.7670 cd         1 91P       0.773800
     20 N02         -1.1250    11.2620   -25.2570 na         1 91P       0.039300
     21 N04          0.3690    12.3590   -24.0410 na         1 91P       0.041000
     22 N30         -4.4820    13.5770   -25.4770 n          1 91P      -0.333000
     23 N34         -4.7150    14.5270   -27.6510 nc         1 91P      -0.799100
     24 N37         -6.1080    13.6970   -29.1300 nv         1 91P      -1.053200
     25 N46         -0.6500    14.0620   -27.5820 ns         1 91P      -0.444400
     26 N48          0.6630    14.2770   -25.6050 nc         1 91P      -0.656100
     27 O06          2.3970    11.8360   -22.8930 os         1 91P      -0.482000
     28 O09          0.7400     9.8000   -21.3210 os         1 91P      -0.633400
     29 O11         -1.3550     8.4110   -20.8940 o          1 91P      -0.862500
     30 O12          0.8330     7.3530   -20.6210 o          1 91P      -0.862500
     31 O13          0.2640     9.2090   -19.0220 os         1 91P      -0.734800
     32 O15         -0.3520    10.5420   -17.0580 o          1 91P      -0.859000
     33 O16         -2.0930     9.1170   -18.0780 o          1 91P      -0.859000
     34 O17         -1.1070    11.1240   -19.3980 os         1 91P      -0.750800
     35 O19         -2.7410    12.2480   -17.7230 o          1 91P      -0.844500
     36 O20         -1.9490    13.4320   -19.7190 o          1 91P      -0.844500
     37 O21         -3.4340    11.3750   -20.0310 os         1 91P      -0.597400
     38 O24         -3.5370    12.3810   -23.6210 os         1 91P      -0.484000
     39 O27         -5.2530    15.5250   -23.0390 oh         1 91P      -0.692000
     40 O29         -3.7090    14.7720   -21.1080 oh         1 91P      -0.733000
     41 O36         -3.2880    15.4160   -26.1820 o          1 91P      -0.583000
     42 O39          2.7620    13.6490   -20.4450 oh         1 91P      -0.710000
     43 O41         -0.0110    14.0620   -21.2040 oh         1 91P      -0.785000
     44 P10          0.0560     8.6190   -20.4670 p5         1 91P       1.493800
     45 P14         -0.9110     9.9940   -18.3290 p5         1 91P       1.538800
     46 P18         -2.3040    12.1000   -19.1390 p5         1 91P       1.496800
     47 H221        -4.2140    10.6500   -21.8230 h1         1 91P       0.056200
     48 H222        -2.4490    10.6350   -21.7310 h1         1 91P       0.056200
     49 H261        -5.9470    13.5660   -23.2730 h1         1 91P       0.071700
     50 H281        -5.1110    13.2070   -21.0950 h1         1 91P       0.092700
     51 H011        -2.2540     9.5080   -24.9060 h1         1 91P       0.076033
     52 H013        -3.0570    10.7430   -25.9160 h1         1 91P       0.076033
     53 H012        -1.7310     9.7540   -26.5990 h1         1 91P       0.076033
     54 H031        -0.4820    10.4440   -23.3240 h5         1 91P       0.242000
     55 H051         1.6450    13.7530   -23.2160 h2         1 91P       0.099700
     56 H071         3.6870    11.4280   -21.3320 h1         1 91P       0.047700
     57 H082         2.5790     9.5860   -20.3480 h1         1 91P       0.034200
     58 H081         2.6130     9.3090   -22.0980 h1         1 91P       0.034200
     59 H231        -2.2800    12.9750   -22.1250 h1         1 91P       0.095700
     60 H251        -3.0460    14.3490   -24.1110 h2         1 91P       0.089700
     61 H311        -5.6520    11.9140   -24.9660 h4         1 91P       0.275000
     62 H321        -6.7630    11.8950   -27.3190 ha         1 91P       0.232000
     63 H381         1.5850    12.0760   -19.6660 h1         1 91P       0.131700
     64 H401        -0.0840    11.9990   -21.4370 h1         1 91P       0.098700
     65 H371        -5.9320    14.5840   -29.5790 hn         1 91P       0.490000
     66 H372        -7.0420    13.3260   -29.2350 hn         1 91P       0.490000
     67 H461        -0.8910    14.4650   -28.4700 hn         1 91P       0.336500
     68 H491         1.2230    16.3270   -26.4630 hn         1 91P       0.518000
     69 H492         0.0800    16.4310   -27.7180 hn         1 91P       0.518000
     70 H271        -4.7110    15.7730   -22.2430 ho         1 91P       0.503000
     71 H291        -3.0350    14.3700   -20.4780 ho         1 91P       0.505000
     72 H391         3.4680    13.3910   -19.8090 ho         1 91P       0.484000
     73 H411        -0.7460    13.8410   -20.5310 ho         1 91P       0.621000
     74 N49          0.7060    15.8410   -27.1850 nv         1 91P      -1.045200
     75 C01         -2.1010    10.2530   -25.6960 c3         1 91P       0.055900
     76 O45         -2.0090    12.3090   -28.0220 o          1 91P      -0.524000
@<TRIPOS>BOND
     1     1     8 1   
     2     1    37 1   
     3     1    47 1   
     4     1    48 1   
     5     2     3 1   
     6     2     9 1   
     7     2    39 1   
     8     2    49 1   
     9     3     8 1   
    10     3    40 1   
    11     3    50 1   
    12     4    20 2   
    13     4    21 1   
    14     4    54 1   
    15     5    15 1   
    16     5    21 1   
    17     5    27 1   
    18     5    55 1   
    19     6     7 1   
    20     6    14 1   
    21     6    27 1   
    22     6    56 1   
    23     7    28 1   
    24     7    57 1   
    25     7    58 1   
    26     8    38 1   
    27     8    59 1   
    28     9    22 1   
    29     9    38 1   
    30     9    60 1   
    31    10    11 2   
    32    10    22 1   
    33    10    61 1   
    34    11    12 1   
    35    11    62 1   
    36    12    23 2   
    37    12    24 1   
    38    13    22 1   
    39    13    23 1   
    40    13    41 2   
    41    14    15 1   
    42    14    42 1   
    43    14    63 1   
    44    15    43 1   
    45    15    64 1   
    46    16    17 2   
    47    16    21 1   
    48    16    26 1   
    49    17    18 1   
    50    17    20 1   
    51    18    25 1   
    52    18    76 2   
    53    19    25 1   
    54    19    26 2   
    55    19    74 1   
    56    20    75 1   
    57    24    65 1   
    58    24    66 1   
    59    25    67 1   
    60    28    44 1   
    61    29    44 1   
    62    30    44 1   
    63    31    44 1   
    64    31    45 1   
    65    32    45 1   
    66    33    45 1   
    67    34    45 1   
    68    34    46 1   
    69    35    46 1   
    70    36    46 1   
    71    37    46 1   
    72    39    70 1   
    73    40    71 1   
    74    42    72 1   
    75    43    73 1   
    76    51    75 1   
    77    52    75 1   
    78    53    75 1   
    79    68    74 1   
    80    69    74 1   
@<TRIPOS>SUBSTRUCTURE
     1 91P         1 TEMP              0 ****  ****    0 ROOT
