@<TRIPOS>MOLECULE
91Q
   31    32     1     0     0
SMALL
bcc


@<TRIPOS>ATOM
      1 N1         -27.4090   -11.7870   141.8700 n3         1 91Q      -0.716600
      2 C4         -26.2770   -12.4280   143.9900 c3         1 91Q       0.000800
      3 C5         -25.7880   -13.5810   144.8060 cc         1 91Q      -0.108400
      4 C6         -24.4920   -14.0010   144.8940 cd         1 91Q      -0.127100
      5 C7         -25.6460   -15.4470   146.1360 ca         1 91Q      -0.017200
      6 C8         -26.5500   -14.5030   145.6020 ca         1 91Q      -0.125800
      7 C10        -28.3160   -15.6610   146.7530 ca         1 91Q      -0.269000
      8 C1         -27.5800   -12.1720   140.4860 c3         1 91Q       0.152100
      9 C2         -28.6520   -11.2760   142.4080 c3         1 91Q       0.152100
     10 C3         -26.8800   -12.8840   142.6600 c3         1 91Q       0.167800
     11 N2         -24.4060   -15.1130   145.6860 na         1 91Q      -0.171400
     12 C9         -27.9110   -14.6240   145.9300 ca         1 91Q       0.192100
     13 C11        -27.3870   -16.5840   147.2610 ca         1 91Q      -0.066000
     14 C12        -26.0430   -16.4970   146.9690 ca         1 91Q      -0.187000
     15 O1         -28.7660   -13.7100   145.4250 oh         1 91Q      -0.490100
     16 H2         -25.4430   -11.7550   143.7750 hc         1 91Q       0.052700
     17 H3         -27.0020   -11.8460   144.5610 hc         1 91Q       0.052700
     18 H4         -23.6080   -13.5780   144.4410 h4         1 91Q       0.163000
     19 H5         -29.3640   -15.7650   147.0130 ha         1 91Q       0.128000
     20 H6         -26.6280   -12.4990   140.0640 h1         1 91Q       0.028033
     21 H7         -28.3080   -12.9880   140.3450 h1         1 91Q       0.028033
     22 H8         -27.9270   -11.3190   139.9000 h1         1 91Q       0.028033
     23 H9         -28.5190   -10.9080   143.4250 h1         1 91Q       0.028033
     24 H10        -29.0000   -10.4360   141.8040 h1         1 91Q       0.028033
     25 H11        -29.4550   -12.0300   142.4290 h1         1 91Q       0.028033
     26 H12        -27.6430   -13.6590   142.8400 h1         1 91Q       0.033700
     27 H13        -26.0850   -13.3650   142.0830 h1         1 91Q       0.033700
     28 H14        -23.5550   -15.6010   145.9080 hn         1 91Q       0.299700
     29 H15        -27.7440   -17.3800   147.9000 ha         1 91Q       0.127000
     30 H16        -25.3290   -17.2070   147.3630 ha         1 91Q       0.133000
     31 H17        -29.6670   -13.9050   145.7080 ho         1 91Q       0.422000
@<TRIPOS>BOND
     1     1     8 1   
     2     1     9 1   
     3     1    10 1   
     4     2     3 1   
     5     2    10 1   
     6     2    16 1   
     7     2    17 1   
     8     3     4 2   
     9     3     6 1   
    10     4    11 1   
    11     4    18 1   
    12     5     6 ar  
    13     5    11 1   
    14     5    14 ar  
    15     6    12 ar  
    16     7    12 ar  
    17     7    13 ar  
    18     7    19 1   
    19     8    20 1   
    20     8    21 1   
    21     8    22 1   
    22     9    23 1   
    23     9    24 1   
    24     9    25 1   
    25    10    26 1   
    26    10    27 1   
    27    11    28 1   
    28    12    15 1   
    29    13    14 ar  
    30    13    29 1   
    31    14    30 1   
    32    15    31 1   
@<TRIPOS>SUBSTRUCTURE
     1 91Q         1 TEMP              0 ****  ****    0 ROOT
