@<TRIPOS>MOLECULE
91Q
   31    32     1     0     0
SMALL
No Charge or Current Charge


@<TRIPOS>ATOM
      1 N1         -27.3860   -11.8060   141.7770 n3         1 91Q      -0.716600
      2 C4         -26.3520   -12.4370   144.0400 c3         1 91Q       0.000800
      3 C5         -25.7950   -13.5800   144.8520 cc         1 91Q      -0.108400
      4 C6         -24.4510   -13.9140   144.9850 cd         1 91Q      -0.177100
      5 C7         -25.6050   -15.4200   146.1610 ca         1 91Q      -0.017200
      6 C8         -26.5260   -14.5600   145.6220 ca         1 91Q      -0.125800
      7 C10        -28.3140   -15.7980   146.6840 ca         1 91Q      -0.251000
      8 C1         -27.7220   -12.3130   140.4290 c3         1 91Q       0.152100
      9 C2         -28.4700   -10.9590   142.3320 c3         1 91Q       0.152100
     10 C3         -26.9540   -12.8990   142.6910 c3         1 91Q       0.167800
     11 N2         -24.3210   -15.0630   145.7990 na         1 91Q      -0.221700
     12 C9         -27.9030   -14.7220   145.8720 ca         1 91Q       0.192100
     13 C11        -27.3590   -16.6850   147.2310 ca         1 91Q      -0.048000
     14 C12        -25.9870   -16.4960   146.9710 ca         1 91Q      -0.169000
     15 O1         -28.8360   -13.8700   145.3620 oh         1 91Q      -0.529100
     16 H2         -25.5560   -11.7100   143.8380 hc         1 91Q       0.052700
     17 H3         -27.1090   -11.9090   144.6290 hc         1 91Q       0.052700
     18 H4         -23.5820   -13.4230   144.5520 h4         1 91Q       0.213000
     19 H5         -29.3680   -15.9530   146.8970 ha         1 91Q       0.110000
     20 H6         -26.8760   -12.8670   140.0000 h1         1 91Q       0.028033
     21 H7         -28.5900   -12.9850   140.4680 h1         1 91Q       0.028033
     22 H8         -27.9600   -11.4830   139.7490 h1         1 91Q       0.028033
     23 H9         -28.1510   -10.4590   143.2550 h1         1 91Q       0.028033
     24 H10        -28.7540   -10.1770   141.6160 h1         1 91Q       0.028033
     25 H11        -29.3610   -11.5610   142.5540 h1         1 91Q       0.028033
     26 H12        -27.7990   -13.5720   142.8920 h1         1 91Q       0.033700
     27 H13        -26.1870   -13.5020   142.1870 h1         1 91Q       0.033700
     28 H14        -23.4610   -15.5340   146.0640 hn         1 91Q       0.350000
     29 H15        -27.6830   -17.5140   147.8580 ha         1 91Q       0.109000
     30 H16        -25.2450   -17.1710   147.3920 ha         1 91Q       0.115000
     31 H17        -29.7150   -14.1670   145.6730 ho         1 91Q       0.461000
@<TRIPOS>BOND
     1     1     8 1   
     2     1     9 1   
     3     1    10 1   
     4     2     3 1   
     5     2    10 1   
     6     2    16 1   
     7     2    17 1   
     8     3     4 2   
     9     3     6 1   
    10     4    11 1   
    11     4    18 1   
    12     5     6 ar  
    13     5    11 1   
    14     5    14 ar  
    15     6    12 ar  
    16     7    12 ar  
    17     7    13 ar  
    18     7    19 1   
    19     8    20 1   
    20     8    21 1   
    21     8    22 1   
    22     9    23 1   
    23     9    24 1   
    24     9    25 1   
    25    10    26 1   
    26    10    27 1   
    27    11    28 1   
    28    12    15 1   
    29    13    14 ar  
    30    13    29 1   
    31    14    30 1   
    32    15    31 1   
@<TRIPOS>SUBSTRUCTURE
     1 91Q         1 TEMP              0 ****  ****    0 ROOT
