@<TRIPOS>MOLECULE
91S
   49    52     1     0     0
SMALL
No Charge or Current Charge


@<TRIPOS>ATOM
      1 O1          -6.1160    -2.0410    -1.3450 o          1 91S      -0.600100
      2 C18         -6.0990    -1.2920    -0.3750 c          1 91S       0.608100
      3 C19         -7.2570    -1.2900     0.6450 c3         1 91S      -0.152400
      4 C20         -8.4490    -2.2190     0.3190 c3         1 91S      -0.077100
      5 N3          -5.0440    -0.3660    -0.2030 n          1 91S      -0.421800
      6 C15         -3.8980    -0.3790    -1.1700 c6         1 91S       0.089500
      7 C14         -2.9490     0.8460    -1.0940 c6         1 91S       0.193300
      8 C16         -4.7140     0.1920     1.1510 c6         1 91S       0.089500
      9 C17         -3.7280     1.3930     1.1580 c6         1 91S       0.193300
     10 N2          -2.5400     1.1320     0.3040 nh         1 91S      -0.778300
     11 C10         -1.3340     1.8340     0.5290 ca         1 91S       0.394900
     12 N           -1.4550     3.1220     0.9070 nb         1 91S      -0.269000
     13 C11         -0.3110     3.8050     1.0970 ca         1 91S       0.160900
     14 N1           0.9420     3.3330     0.9470 nb         1 91S      -0.169000
     15 C12          1.0860     2.0410     0.5760 ca         1 91S       0.000000
     16 C9          -0.0600     1.2360     0.3550 ca         1 91S      -0.128000
     17 C8           0.0930    -0.1200    -0.0070 ca         1 91S      -0.090000
     18 C7           1.3710    -0.6730    -0.1720 ca         1 91S       0.149000
     19 Cl           1.4920    -2.3780    -0.6060 cl         1 91S      -0.180000
     20 C13          2.3660     1.4680     0.4060 ca         1 91S       0.219000
     21 F1           3.4650     2.2350     0.6090 f          1 91S      -0.142000
     22 C6           2.5300     0.1130     0.0260 cp         1 91S      -0.035000
     23 C5           3.8970    -0.4680    -0.1460 cp         1 91S      -0.133000
     24 C            4.4520    -0.6720    -1.4320 ca         1 91S       0.195100
     25 O            3.7510    -0.3320    -2.5510 oh         1 91S      -0.518100
     26 C4           4.6750    -0.8220     0.9810 ca         1 91S       0.239000
     27 F            4.1810    -0.6430     2.2270 f          1 91S      -0.166000
     28 C3           5.9580    -1.3690     0.8340 ca         1 91S      -0.193000
     29 C2           6.4930    -1.5690    -0.4470 ca         1 91S      -0.030000
     30 C1           5.7380    -1.2190    -1.5780 ca         1 91S      -0.229000
     31 H1          -6.8410    -1.5180     1.6330 hc         1 91S       0.055700
     32 H2          -7.5860    -0.2530     0.7840 hc         1 91S       0.055700
     33 H3          -9.2180    -2.1440     1.0970 hc         1 91S       0.043033
     34 H4          -8.9050    -1.9440    -0.6400 hc         1 91S       0.043033
     35 H5          -8.1230    -3.2650     0.2610 hc         1 91S       0.043033
     36 H6          -3.3050    -1.2860    -0.9860 h1         1 91S       0.062950
     37 H7          -4.2830    -0.4510    -2.1970 h1         1 91S       0.062950
     38 H8          -2.0710     0.6550    -1.7290 h1         1 91S       0.061700
     39 H9          -3.4670     1.7210    -1.5160 h1         1 91S       0.061700
     40 H10         -5.6290     0.5170     1.6630 h1         1 91S       0.062950
     41 H11         -4.2760    -0.6160     1.7550 h1         1 91S       0.062950
     42 H12         -4.2580     2.2880     0.8000 h1         1 91S       0.061700
     43 H13         -3.4230     1.5870     2.1970 h1         1 91S       0.061700
     44 H14         -0.4080     4.8460     1.4000 h5         1 91S       0.051100
     45 H15         -0.7750    -0.7570    -0.1530 ha         1 91S       0.139000
     46 H16          4.2980    -0.5510    -3.3340 ho         1 91S       0.470000
     47 H17          6.5360    -1.6360     1.7150 ha         1 91S       0.139000
     48 H18          7.4890    -1.9930    -0.5630 ha         1 91S       0.119000
     49 H19          6.1610    -1.3750    -2.5680 ha         1 91S       0.121000
@<TRIPOS>BOND
     1     1     2 2   
     2     2     3 1   
     3     2     5 1   
     4     3     4 1   
     5     3    31 1   
     6     3    32 1   
     7     4    33 1   
     8     4    34 1   
     9     4    35 1   
    10     5     6 1   
    11     5     8 1   
    12     6     7 1   
    13     6    36 1   
    14     6    37 1   
    15     7    10 1   
    16     7    38 1   
    17     7    39 1   
    18     8     9 1   
    19     8    40 1   
    20     8    41 1   
    21     9    10 1   
    22     9    42 1   
    23     9    43 1   
    24    10    11 1   
    25    11    12 ar  
    26    11    16 ar  
    27    12    13 ar  
    28    13    14 ar  
    29    13    44 1   
    30    14    15 ar  
    31    15    16 ar  
    32    15    20 ar  
    33    16    17 ar  
    34    17    18 ar  
    35    17    45 1   
    36    18    19 1   
    37    18    22 ar  
    38    20    21 1   
    39    20    22 ar  
    40    22    23 1   
    41    23    24 ar  
    42    23    26 ar  
    43    24    25 1   
    44    24    30 ar  
    45    25    46 1   
    46    26    27 1   
    47    26    28 ar  
    48    28    29 ar  
    49    28    47 1   
    50    29    30 ar  
    51    29    48 1   
    52    30    49 1   
@<TRIPOS>SUBSTRUCTURE
     1 91S         1 TEMP              0 ****  ****    0 ROOT
