@<TRIPOS>MOLECULE
91S
   49    52     1     0     0
SMALL
abcg2


@<TRIPOS>ATOM
      1 O1          -6.1510    -1.8140    -1.4250 o          1 91S      -0.600100
      2 C18         -6.0620    -1.1690    -0.3890 c          1 91S       0.608100
      3 C19         -7.3020    -0.7590     0.3840 c3         1 91S      -0.152400
      4 C20         -8.5880    -1.2680    -0.2430 c3         1 91S      -0.077100
      5 N3          -4.8620    -0.7950     0.1160 n          1 91S      -0.421800
      6 C15         -3.6230    -1.1620    -0.5420 c6         1 91S       0.089500
      7 C14         -2.7700     0.0730    -0.7670 c6         1 91S       0.193300
      8 C16         -4.6600    -0.0510     1.3440 c6         1 91S       0.089500
      9 C17         -3.7990     1.1810     1.1060 c6         1 91S       0.193300
     10 N2          -2.5450     0.7710     0.4960 nh         1 91S      -0.778300
     11 C10         -1.4250     1.5060     0.7200 ca         1 91S       0.394900
     12 N           -1.5550     2.7100     1.2350 nb         1 91S      -0.269000
     13 C11         -0.4580     3.4650     1.3810 ca         1 91S       0.160900
     14 N1           0.7630     3.1620     1.0450 nb         1 91S      -0.169000
     15 C12          0.9430     1.8960     0.6050 ca         1 91S       0.000000
     16 C9          -0.1110     0.9750     0.4630 ca         1 91S      -0.128000
     17 C8           0.1690    -0.3750     0.1840 ca         1 91S      -0.090000
     18 C7           1.4600    -0.7640    -0.0440 ca         1 91S       0.149000
     19 CL           1.8000    -2.4250    -0.3570 cl         1 91S      -0.180000
     20 C13          2.2490     1.4420     0.3250 ca         1 91S       0.219000
     21 F1           3.2380     2.3280     0.4060 f          1 91S      -0.142000
     22 C6           2.5390     0.1460    -0.0010 cp         1 91S      -0.035000
     23 C5           3.9270    -0.2740    -0.2690 cp         1 91S      -0.133000
     24 C            4.3480    -0.5600    -1.5720 ca         1 91S       0.195100
     25 O            3.4370    -0.4140    -2.5440 oh         1 91S      -0.518100
     26 C4           4.8480    -0.4120     0.7550 ca         1 91S       0.239000
     27 F            4.4380    -0.1410     2.0020 f          1 91S      -0.166000
     28 C3           6.1500    -0.8220     0.5520 ca         1 91S      -0.193000
     29 C2           6.5400    -1.1010    -0.7500 ca         1 91S      -0.030000
     30 C1           5.6550    -0.9740    -1.8090 ca         1 91S      -0.229000
     31 H1          -7.2250    -1.1260     1.4110 hc         1 91S       0.055700
     32 H2          -7.3340     0.3310     0.4630 hc         1 91S       0.055700
     33 H3          -9.4390    -0.9430     0.3550 hc         1 91S       0.043033
     34 H4          -8.7280    -0.8850    -1.2530 hc         1 91S       0.043033
     35 H5          -8.6130    -2.3560    -0.2900 hc         1 91S       0.043033
     36 H6          -3.0780    -1.8820     0.0790 h1         1 91S       0.062950
     37 H7          -3.8400    -1.6350    -1.4950 h1         1 91S       0.062950
     38 H8          -1.8340    -0.2010    -1.2440 h1         1 91S       0.061700
     39 H9          -3.2910     0.7510    -1.4540 h1         1 91S       0.061700
     40 H10         -5.6070     0.2660     1.7690 h1         1 91S       0.062950
     41 H11         -4.1680    -0.6930     2.0820 h1         1 91S       0.062950
     42 H12         -4.3300     1.8940     0.4650 h1         1 91S       0.061700
     43 H13         -3.6050     1.6650     2.0600 h1         1 91S       0.061700
     44 H14         -0.6230     4.4510     1.8030 h5         1 91S       0.051100
     45 H15         -0.6150    -1.1170     0.1900 ha         1 91S       0.139000
     46 H16          3.8190    -0.6340    -3.4020 ho         1 91S       0.470000
     47 H17          6.8340    -0.9190     1.3830 ha         1 91S       0.139000
     48 H18          7.5540    -1.4230    -0.9440 ha         1 91S       0.119000
     49 H19          5.9800    -1.1960    -2.8190 ha         1 91S       0.121000
@<TRIPOS>BOND
     1     1     2 2   
     2     2     3 1   
     3     2     5 1   
     4     3     4 1   
     5     3    31 1   
     6     3    32 1   
     7     4    33 1   
     8     4    34 1   
     9     4    35 1   
    10     5     6 1   
    11     5     8 1   
    12     6     7 1   
    13     6    36 1   
    14     6    37 1   
    15     7    10 1   
    16     7    38 1   
    17     7    39 1   
    18     8     9 1   
    19     8    40 1   
    20     8    41 1   
    21     9    10 1   
    22     9    42 1   
    23     9    43 1   
    24    10    11 1   
    25    11    12 ar  
    26    11    16 ar  
    27    12    13 ar  
    28    13    14 ar  
    29    13    44 1   
    30    14    15 ar  
    31    15    16 ar  
    32    15    20 ar  
    33    16    17 ar  
    34    17    18 ar  
    35    17    45 1   
    36    18    19 1   
    37    18    22 ar  
    38    20    21 1   
    39    20    22 ar  
    40    22    23 1   
    41    23    24 ar  
    42    23    26 ar  
    43    24    25 1   
    44    24    30 ar  
    45    25    46 1   
    46    26    27 1   
    47    26    28 ar  
    48    28    29 ar  
    49    28    47 1   
    50    29    30 ar  
    51    29    48 1   
    52    30    49 1   
@<TRIPOS>SUBSTRUCTURE
     1 91S         1 TEMP              0 ****  ****    0 ROOT
