@<TRIPOS>MOLECULE
91U
   62    64     1     0     0
SMALL
abcg2


@<TRIPOS>ATOM
      1 C47          3.4980     2.7080     0.3390 c          1 91U       0.615100
      2 O48          3.8200     2.8060    -0.8350 o          1 91U      -0.590100
      3 C49          3.5840     3.8910     1.2760 c3         1 91U      -0.183100
      4 C1           5.2030    -0.3620    -0.0780 c6         1 91U      -0.055700
      5 C6           5.2170    -1.3600     1.0810 c6         1 91U      -0.071900
      6 C5           6.6240    -1.5930     1.6230 c6         1 91U      -0.073400
      7 C4           7.5880    -2.0270     0.5250 c6         1 91U      -0.074400
      8 C3           7.5950    -1.0190    -0.6180 c6         1 91U      -0.073400
      9 C2           6.1880    -0.7980    -1.1640 c6         1 91U      -0.071900
     10 N            3.0530     1.5750     0.9190 ns         1 91U      -0.497900
     11 C15          2.7400     0.3200     0.2780 c3         1 91U       0.059700
     12 C31          3.8140    -0.1940    -0.6910 c3         1 91U      -0.078400
     13 C14          1.3910     0.4010    -0.4370 c          1 91U       0.587100
     14 O32          0.9930     1.4420    -0.9400 o          1 91U      -0.582100
     15 N1           0.6740    -0.7330    -0.5150 n          1 91U      -0.405800
     16 C32         -0.6030    -0.7270    -1.2060 c5         1 91U       0.029700
     17 C7          -1.5520     0.3020    -0.6120 c          1 91U       0.604100
     18 O22         -1.5990     0.5250     0.5860 o          1 91U      -0.587100
     19 C35         -1.1470    -2.1490    -0.9880 c5         1 91U      -0.087400
     20 C34          0.1030    -2.9770    -0.7150 c5         1 91U      -0.092400
     21 C33          0.9730    -2.0260     0.0900 c5         1 91U       0.106000
     22 N23         -2.3860     0.8720    -1.4960 ns         1 91U      -0.502900
     23 C24         -3.4240     1.7830    -1.0890 c3         1 91U       0.154300
     24 C25         -4.5650     1.1250    -0.3480 ca         1 91U      -0.083300
     25 C26         -5.2880     1.8510     0.5920 ca         1 91U      -0.097000
     26 C27         -6.3680     1.2780     1.2480 ca         1 91U      -0.099000
     27 C28         -6.7420    -0.0310     0.9820 ca         1 91U      -0.103000
     28 C29         -6.0130    -0.7460     0.0460 ca         1 91U       0.122000
     29 C30         -4.9350    -0.1860    -0.6220 ca         1 91U      -0.096000
     30 CL21        -6.4570    -2.3880    -0.3030 cl         1 91U      -0.213000
     31 H49          3.4910     3.6260     2.3280 hc         1 91U       0.058700
     32 H49A         4.5300     4.4090     1.1290 hc         1 91U       0.058700
     33 H49B         2.7860     4.5950     1.0340 hc         1 91U       0.058700
     34 H1           5.5380     0.6090     0.3060 hc         1 91U       0.059700
     35 H6A          4.7970    -2.3140     0.7360 hc         1 91U       0.035950
     36 H5           6.9910    -0.6650     2.0770 hc         1 91U       0.038700
     37 H5A          6.5950    -2.3370     2.4230 hc         1 91U       0.038700
     38 H4           8.5950    -2.1500     0.9330 hc         1 91U       0.037200
     39 H4A          7.2850    -3.0080     0.1420 hc         1 91U       0.037200
     40 H3           7.9990    -0.0660    -0.2590 hc         1 91U       0.038700
     41 H3A          8.2580    -1.3540    -1.4200 hc         1 91U       0.038700
     42 H2           5.8290    -1.7310    -1.6170 hc         1 91U       0.035950
     43 H2A          6.2090    -0.0540    -1.9650 hc         1 91U       0.035950
     44 HN           2.7850     1.6380     1.8870 hn         1 91U       0.311500
     45 H15          2.6580    -0.3950     1.0990 h1         1 91U       0.054700
     46 H31          3.4840    -1.1670    -1.0720 hc         1 91U       0.062200
     47 H31A         3.8680     0.4680    -1.5540 hc         1 91U       0.062200
     48 H32         -0.4510    -0.5340    -2.2730 h1         1 91U       0.066700
     49 H35         -1.7150    -2.5000    -1.8480 hc         1 91U       0.063200
     50 H35A        -1.8050    -2.1750    -0.1160 hc         1 91U       0.063200
     51 H34          0.6030    -3.2370    -1.6510 hc         1 91U       0.057200
     52 H34A        -0.1090    -3.9000    -0.1780 hc         1 91U       0.057200
     53 H33          2.0290    -2.2790     0.0150 h1         1 91U       0.051700
     54 H33A         0.6950    -2.0340     1.1480 h1         1 91U       0.051700
     55 HN23        -2.2810     0.6710    -2.4760 hn         1 91U       0.318500
     56 H24         -3.0050     2.5810    -0.4720 h1         1 91U       0.061700
     57 H24A        -3.8080     2.2570    -1.9930 h1         1 91U       0.061700
     58 H26         -5.0030     2.8720     0.8190 ha         1 91U       0.118000
     59 H27         -6.9200     1.8510     1.9810 ha         1 91U       0.118000
     60 H28         -7.5780    -0.4840     1.4970 ha         1 91U       0.129000
     61 H30         -4.3850    -0.7710    -1.3470 ha         1 91U       0.123000
     62 H6           4.5760    -1.0140     1.8960 hc         1 91U       0.035950
@<TRIPOS>BOND
     1     1     2 2   
     2     1     3 1   
     3     1    10 1   
     4     3    31 1   
     5     3    32 1   
     6     3    33 1   
     7     4     5 1   
     8     4     9 1   
     9     4    12 1   
    10     4    34 1   
    11     5     6 1   
    12     5    35 1   
    13     5    62 1   
    14     6     7 1   
    15     6    36 1   
    16     6    37 1   
    17     7     8 1   
    18     7    38 1   
    19     7    39 1   
    20     8     9 1   
    21     8    40 1   
    22     8    41 1   
    23     9    42 1   
    24     9    43 1   
    25    10    11 1   
    26    10    44 1   
    27    11    12 1   
    28    11    13 1   
    29    11    45 1   
    30    12    46 1   
    31    12    47 1   
    32    13    14 2   
    33    13    15 1   
    34    15    16 1   
    35    15    21 1   
    36    16    17 1   
    37    16    19 1   
    38    16    48 1   
    39    17    18 2   
    40    17    22 1   
    41    19    20 1   
    42    19    49 1   
    43    19    50 1   
    44    20    21 1   
    45    20    51 1   
    46    20    52 1   
    47    21    53 1   
    48    21    54 1   
    49    22    23 1   
    50    22    55 1   
    51    23    24 1   
    52    23    56 1   
    53    23    57 1   
    54    24    25 ar  
    55    24    29 ar  
    56    25    26 ar  
    57    25    58 1   
    58    26    27 ar  
    59    26    59 1   
    60    27    28 ar  
    61    27    60 1   
    62    28    29 ar  
    63    28    30 1   
    64    29    61 1   
@<TRIPOS>SUBSTRUCTURE
     1 91U         1 TEMP              0 ****  ****    0 ROOT
