@<TRIPOS>MOLECULE
91U
   62    64     1     0     0
SMALL
No Charge or Current Charge


@<TRIPOS>ATOM
      1 C47          3.9170     2.8920     0.0340 c          1 91U       0.615100
      2 O48          3.9960     2.8460    -1.1840 o          1 91U      -0.590100
      3 C49          4.3690     4.1120     0.8270 c3         1 91U      -0.183100
      4 C1           5.3480    -0.4150    -0.0600 c6         1 91U      -0.055700
      5 C6           5.3720    -1.2630     1.2460 c6         1 91U      -0.071900
      6 C5           6.8170    -1.4840     1.7560 c6         1 91U      -0.073400
      7 C4           7.7070    -2.1310     0.6680 c6         1 91U      -0.074400
      8 C3           7.6960    -1.2880    -0.6300 c6         1 91U      -0.073400
      9 C2           6.2510    -1.0710    -1.1430 c6         1 91U      -0.071900
     10 N            3.4230     1.8650     0.8130 ns         1 91U      -0.497900
     11 C15          2.9110     0.5500     0.3390 c3         1 91U       0.059700
     12 C31          3.9000    -0.2010    -0.6060 c3         1 91U      -0.078400
     13 C14          1.4720     0.6670    -0.2710 c          1 91U       0.587100
     14 O32          1.0450     1.7290    -0.7150 o          1 91U      -0.582100
     15 N1           0.6790    -0.5050    -0.3710 n          1 91U      -0.405800
     16 C32         -0.6830    -0.4940    -0.9910 c5         1 91U       0.029700
     17 C7          -1.6940     0.5420    -0.3950 c          1 91U       0.604100
     18 O22         -1.6710     1.0540     0.7190 o          1 91U      -0.587100
     19 C35         -1.2160    -1.9250    -0.6490 c5         1 91U      -0.087400
     20 C34          0.0800    -2.7440    -0.4340 c5         1 91U      -0.092400
     21 C33          0.9370    -1.7510     0.3820 c5         1 91U       0.106000
     22 N23         -2.6770     0.8050    -1.3260 ns         1 91U      -0.502900
     23 C24         -3.8240     1.6790    -1.0910 c3         1 91U       0.154300
     24 C25         -5.0010     0.9010    -0.5200 ca         1 91U      -0.083300
     25 C26         -5.1840     0.8100     0.8740 ca         1 91U      -0.097000
     26 C27         -6.2660     0.0830     1.4020 ca         1 91U      -0.099000
     27 C28         -7.1700    -0.5580     0.5380 ca         1 91U      -0.103000
     28 C29         -6.9900    -0.4720    -0.8520 ca         1 91U       0.122000
     29 C30         -5.9090     0.2540    -1.3810 ca         1 91U      -0.096000
     30 Cl21        -8.1190    -1.2770    -1.9350 cl         1 91U      -0.213000
     31 H49          5.1070     3.7980     1.5740 hc         1 91U       0.058700
     32 H49A         4.7580     4.9120     0.1860 hc         1 91U       0.058700
     33 H49B         3.5380     4.4610     1.4500 hc         1 91U       0.058700
     34 H1           5.7570     0.5810     0.1630 hc         1 91U       0.059700
     35 H6A          4.8910    -2.2350     1.0690 hc         1 91U       0.035950
     36 H5           7.2510    -0.5230     2.0660 hc         1 91U       0.038700
     37 H5A          6.8020    -2.1220     2.6510 hc         1 91U       0.038700
     38 H4           8.7360    -2.2320     1.0380 hc         1 91U       0.037200
     39 H4A          7.3500    -3.1470     0.4520 hc         1 91U       0.037200
     40 H3           8.1720    -0.3150    -0.4440 hc         1 91U       0.038700
     41 H3A          8.2950    -1.7870    -1.4030 hc         1 91U       0.038700
     42 H2           5.8240    -2.0360    -1.4500 hc         1 91U       0.035950
     43 H2A          6.2750    -0.4420    -2.0430 hc         1 91U       0.035950
     44 HN           3.4060     2.0430     1.8100 hn         1 91U       0.311500
     45 H15          2.7930    -0.0610     1.2420 h1         1 91U       0.054700
     46 H31          3.4770    -1.1750    -0.8710 hc         1 91U       0.062200
     47 H31A         3.9490     0.3390    -1.5580 hc         1 91U       0.062200
     48 H32         -0.5980    -0.3450    -2.0750 h1         1 91U       0.066700
     49 H35         -1.8490    -2.3360    -1.4440 hc         1 91U       0.063200
     50 H35A        -1.8180    -1.9230     0.2690 hc         1 91U       0.063200
     51 H34          0.5600    -2.9900    -1.3890 hc         1 91U       0.057200
     52 H34A        -0.0950    -3.6850     0.1000 hc         1 91U       0.057200
     53 H33          1.9900    -2.0540     0.4010 h1         1 91U       0.051700
     54 H33A         0.5820    -1.6620     1.4170 h1         1 91U       0.051700
     55 HN23        -2.6110     0.3250    -2.2160 hn         1 91U       0.318500
     56 H24         -3.5390     2.4880    -0.4050 h1         1 91U       0.061700
     57 H24A        -4.1160     2.1420    -2.0430 h1         1 91U       0.061700
     58 H26         -4.4860     1.3000     1.5490 ha         1 91U       0.118000
     59 H27         -6.4020     0.0160     2.4790 ha         1 91U       0.118000
     60 H28         -8.0070    -1.1210     0.9430 ha         1 91U       0.129000
     61 H30         -5.7780     0.3120    -2.4590 ha         1 91U       0.123000
     62 H6           4.7920    -0.7670     2.0350 hc         1 91U       0.035950
@<TRIPOS>BOND
     1     1     2 2   
     2     1     3 1   
     3     1    10 1   
     4     3    31 1   
     5     3    32 1   
     6     3    33 1   
     7     4     5 1   
     8     4     9 1   
     9     4    12 1   
    10     4    34 1   
    11     5     6 1   
    12     5    35 1   
    13     5    62 1   
    14     6     7 1   
    15     6    36 1   
    16     6    37 1   
    17     7     8 1   
    18     7    38 1   
    19     7    39 1   
    20     8     9 1   
    21     8    40 1   
    22     8    41 1   
    23     9    42 1   
    24     9    43 1   
    25    10    11 1   
    26    10    44 1   
    27    11    12 1   
    28    11    13 1   
    29    11    45 1   
    30    12    46 1   
    31    12    47 1   
    32    13    14 2   
    33    13    15 1   
    34    15    16 1   
    35    15    21 1   
    36    16    17 1   
    37    16    19 1   
    38    16    48 1   
    39    17    18 2   
    40    17    22 1   
    41    19    20 1   
    42    19    49 1   
    43    19    50 1   
    44    20    21 1   
    45    20    51 1   
    46    20    52 1   
    47    21    53 1   
    48    21    54 1   
    49    22    23 1   
    50    22    55 1   
    51    23    24 1   
    52    23    56 1   
    53    23    57 1   
    54    24    25 ar  
    55    24    29 ar  
    56    25    26 ar  
    57    25    58 1   
    58    26    27 ar  
    59    26    59 1   
    60    27    28 ar  
    61    27    60 1   
    62    28    29 ar  
    63    28    30 1   
    64    29    61 1   
@<TRIPOS>SUBSTRUCTURE
     1 91U         1 TEMP              0 ****  ****    0 ROOT
