@<TRIPOS>MOLECULE
91V
   66    70     1     0     0
SMALL
No Charge or Current Charge


@<TRIPOS>ATOM
      1 C5           1.5950     1.6800    -1.9130 c6         1 91V       0.170300
      2 C6           2.8680     2.3760    -1.3750 c6         1 91V      -0.088900
      3 C7           3.4530     1.6110    -0.1680 c6         1 91V       0.174300
      4 C8           2.3460     1.4410     0.9030 c6         1 91V      -0.088900
      5 C13          5.4330    -1.8500    -1.7330 ca         1 91V      -0.093250
      6 C15          5.8710    -4.2390    -1.5640 ca         1 91V      -0.106000
      7 C17          5.1730    -2.9850     0.4020 ca         1 91V      -0.093250
      8 C20          7.1950     1.0690     2.7950 ca         1 91V      -0.113750
      9 C21          8.1440     1.6340     1.9270 ca         1 91V      -0.106000
     10 C22          7.9820     1.5110     0.5370 ca         1 91V      -0.113750
     11 C24         -4.4360     0.6070    -0.1560 c3         1 91V       0.229800
     12 C26         -6.9190     0.0950    -0.3230 cc         1 91V       0.590900
     13 C28         -9.2350    -0.4660    -0.7980 cd         1 91V       0.009000
     14 C1          -3.2330     0.5750    -1.1190 c3         1 91V      -0.096400
     15 C2          -1.9110     1.0020    -0.4420 c3         1 91V      -0.075400
     16 N4           0.5550     1.5290    -0.8560 n3         1 91V      -0.720600
     17 C9           1.0900     0.7620     0.3100 c6         1 91V       0.170300
     18 O10          3.9930     0.3450    -0.6230 os         1 91V      -0.462000
     19 C11          4.6990    -0.4910     0.3220 c3         1 91V       0.269900
     20 C12          5.1060    -1.8000    -0.3590 ca         1 91V      -0.100800
     21 C14          5.8120    -3.0640    -2.3310 ca         1 91V      -0.113750
     22 C16          5.5520    -4.1990    -0.1970 ca         1 91V      -0.113750
     23 C18          5.9140     0.2550     0.8800 ca         1 91V      -0.100800
     24 C19          6.0840     0.3830     2.2740 ca         1 91V      -0.093250
     25 C23          6.8720     0.8250     0.0150 ca         1 91V      -0.093250
     26 N25         -5.6630     0.1910    -0.8540 nu         1 91V      -0.935100
     27 C27         -7.9390    -0.3390    -1.2410 cc         1 91V      -0.189000
     28 C29         -9.4040    -0.1360     0.5770 cd         1 91V      -0.182000
     29 N30        -10.5120    -0.1550     1.2960 nc         1 91V      -0.071000
     30 N31        -10.1650     0.2510     2.5930 nc         1 91V      -0.377700
     31 C32         -8.8510     0.5070     2.6240 cd         1 91V       0.353700
     32 N33         -8.3720     0.2650     1.3650 na         1 91V       0.155000
     33 N34         -7.0500     0.4090     0.9640 nd         1 91V      -0.576800
     34 H1           1.2020     2.2760    -2.7500 h1         1 91V       0.035200
     35 H2           1.8680     0.6960    -2.3220 h1         1 91V       0.035200
     36 H3           3.6200     2.4500    -2.1720 hc         1 91V       0.053700
     37 H4           2.6250     3.4050    -1.0780 hc         1 91V       0.053700
     38 H5           4.2730     2.2100     0.2540 h1         1 91V       0.047700
     39 H6           2.7110     0.8780     1.7700 hc         1 91V       0.053700
     40 H7           2.0660     2.4300     1.2910 hc         1 91V       0.053700
     41 H8           5.3930    -0.9480    -2.3400 ha         1 91V       0.116500
     42 H9           6.1650    -5.1780    -2.0280 ha         1 91V       0.112500
     43 H10          4.9320    -2.9660     1.4630 ha         1 91V       0.116500
     44 H11          7.3190     1.1640     3.8710 ha         1 91V       0.112250
     45 H12          9.0040     2.1650     2.3310 ha         1 91V       0.112500
     46 H13          8.7160     1.9480    -0.1370 ha         1 91V       0.112250
     47 H14         -4.2380    -0.0640     0.6920 h1         1 91V       0.055700
     48 H15         -4.5540     1.6250     0.2410 h1         1 91V       0.055700
     49 H16        -10.0510    -0.7880    -1.4380 ha         1 91V       0.150000
     50 H17         -3.1180    -0.4400    -1.5200 hc         1 91V       0.044700
     51 H18         -3.4330     1.2400    -1.9680 hc         1 91V       0.044700
     52 H19         -2.0210     2.0180    -0.0440 hc         1 91V       0.051700
     53 H20         -1.7230     0.3380     0.4090 hc         1 91V       0.051700
     54 H21         -0.5410    -0.0680    -1.7340 h1         1 91V       0.029200
     55 H22         -0.9840     1.5430    -2.3020 h1         1 91V       0.029200
     56 H24          1.3420    -0.2660     0.0090 h1         1 91V       0.035200
     57 H25          0.3400     0.6910     1.1090 h1         1 91V       0.035200
     58 H26          4.0330    -0.7540     1.1540 h1         1 91V       0.042700
     59 H27          6.0600    -3.0930    -3.3900 ha         1 91V       0.112250
     60 H28          5.6000    -5.1080     0.3990 ha         1 91V       0.112250
     61 H29          5.3550    -0.0500     2.9560 ha         1 91V       0.116500
     62 H30          6.7540     0.7390    -1.0620 ha         1 91V       0.116500
     63 H31         -5.5970    -0.0550    -1.8390 hn         1 91V       0.498000
     64 H32         -7.6820    -0.5610    -2.2690 ha         1 91V       0.131000
     65 H33         -8.2420     0.8400     3.4530 h5         1 91V       0.084800
     66 C3          -0.7030     0.9690    -1.4080 c3         1 91V       0.170800
@<TRIPOS>BOND
     1     1     2 1   
     2     1    16 1   
     3     1    34 1   
     4     1    35 1   
     5     2     3 1   
     6     2    36 1   
     7     2    37 1   
     8     3     4 1   
     9     3    18 1   
    10     3    38 1   
    11     4    17 1   
    12     4    39 1   
    13     4    40 1   
    14     5    20 ar  
    15     5    21 ar  
    16     5    41 1   
    17     6    21 ar  
    18     6    22 ar  
    19     6    42 1   
    20     7    20 ar  
    21     7    22 ar  
    22     7    43 1   
    23     8     9 ar  
    24     8    24 ar  
    25     8    44 1   
    26     9    10 ar  
    27     9    45 1   
    28    10    25 ar  
    29    10    46 1   
    30    11    14 1   
    31    11    26 1   
    32    11    47 1   
    33    11    48 1   
    34    12    26 1   
    35    12    27 1   
    36    12    33 2   
    37    13    27 2   
    38    13    28 1   
    39    13    49 1   
    40    14    15 1   
    41    14    50 1   
    42    14    51 1   
    43    15    52 1   
    44    15    53 1   
    45    15    66 1   
    46    16    17 1   
    47    16    66 1   
    48    17    56 1   
    49    17    57 1   
    50    18    19 1   
    51    19    20 1   
    52    19    23 1   
    53    19    58 1   
    54    21    59 1   
    55    22    60 1   
    56    23    24 ar  
    57    23    25 ar  
    58    24    61 1   
    59    25    62 1   
    60    26    63 1   
    61    27    64 1   
    62    28    29 2   
    63    28    32 1   
    64    29    30 1   
    65    30    31 2   
    66    31    32 1   
    67    31    65 1   
    68    32    33 1   
    69    54    66 1   
    70    55    66 1   
@<TRIPOS>SUBSTRUCTURE
     1 91V         1 TEMP              0 ****  ****    0 ROOT
