@<TRIPOS>MOLECULE
91V
   66    70     1     0     0
SMALL
bcc


@<TRIPOS>ATOM
      1 C5           1.6100     1.6270    -2.0120 c6         1 91V       0.170300
      2 C6           2.8740     2.3180    -1.5230 c6         1 91V      -0.088900
      3 C7           3.4250     1.6600    -0.2690 c6         1 91V       0.151100
      4 C8           2.3120     1.5780     0.7680 c6         1 91V      -0.088900
      5 C13          4.9640    -1.9160    -1.6690 ca         1 91V      -0.111250
      6 C15          5.6470    -4.2060    -1.3500 ca         1 91V      -0.124000
      7 C17          5.1730    -2.8070     0.5470 ca         1 91V      -0.111250
      8 C20          6.9680     0.9790     2.8650 ca         1 91V      -0.131750
      9 C21          7.9810     1.4500     2.0430 ca         1 91V      -0.124000
     10 C22          7.8630     1.3240     0.6620 ca         1 91V      -0.131750
     11 C24         -4.2990     0.6990    -0.2970 c3         1 91V       0.229800
     12 C26         -6.7010     0.1950    -0.4130 cc         1 91V       0.656200
     13 C28         -9.0560    -0.2890    -0.6840 cd         1 91V      -0.009000
     14 C1          -3.1220     0.7400    -1.2570 c3         1 91V      -0.096400
     15 C2          -1.8150     1.0590    -0.5420 c3         1 91V      -0.075400
     16 N4           0.5890     1.5800    -0.9780 n3         1 91V      -0.720600
     17 C9           1.0720     0.8960     0.2110 c6         1 91V       0.170300
     18 O10          3.9030     0.3830    -0.6650 os         1 91V      -0.415600
     19 C11          4.4970    -0.4090     0.3250 c3         1 91V       0.246700
     20 C12          4.8750    -1.7370    -0.2930 ca         1 91V      -0.100800
     21 C14          5.3490    -3.1450    -2.1930 ca         1 91V      -0.131750
     22 C16          5.5570    -4.0330     0.0260 ca         1 91V      -0.131750
     23 C18          5.7200     0.2510     0.9310 ca         1 91V      -0.100800
     24 C19          5.8400     0.3870     2.3070 ca         1 91V      -0.111250
     25 C23          6.7410     0.7270     0.1100 ca         1 91V      -0.111250
     26 N25         -5.5230     0.4220    -1.0140 nu         1 91V      -0.879900
     27 C27         -7.8620    -0.0320    -1.2490 cc         1 91V      -0.272300
     28 C29         -9.1100    -0.3250     0.7340 cd         1 91V      -0.131300
     29 N30        -10.0860    -0.5460     1.5890 nc         1 91V      -0.071000
     30 N31         -9.5590    -0.4550     2.8210 nc         1 91V      -0.377700
     31 C32         -8.2830    -0.1830     2.7160 cd         1 91V       0.353700
     32 N33         -7.9520    -0.0920     1.4120 na         1 91V       0.104300
     33 N34         -6.7400     0.1770     0.8950 nd         1 91V      -0.576800
     34 H1           1.2110     2.1790    -2.8670 h1         1 91V       0.035200
     35 H2           1.8590     0.6190    -2.3820 h1         1 91V       0.035200
     36 H3           3.6270     2.3160    -2.3140 hc         1 91V       0.053700
     37 H4           2.6540     3.3640    -1.2950 hc         1 91V       0.053700
     38 H5           4.2530     2.2610     0.1310 h1         1 91V       0.047700
     39 H6           2.6370     1.0690     1.6780 hc         1 91V       0.053700
     40 H7           2.0590     2.5990     1.0690 hc         1 91V       0.053700
     41 H8           4.7320    -1.1010    -2.3410 ha         1 91V       0.134500
     42 H9           5.9470    -5.1620    -1.7600 ha         1 91V       0.130500
     43 H10          5.1060    -2.6800     1.6220 ha         1 91V       0.134500
     44 H11          7.0500     1.0780     3.9400 ha         1 91V       0.130250
     45 H12          8.8590     1.9140     2.4730 ha         1 91V       0.130500
     46 H13          8.6500     1.6920     0.0170 ha         1 91V       0.130250
     47 H14         -4.1390    -0.0790     0.4550 h1         1 91V       0.055700
     48 H15         -4.3760     1.6490     0.2450 h1         1 91V       0.055700
     49 H16         -9.9490    -0.4670    -1.2670 ha         1 91V       0.168000
     50 H17         -3.0420    -0.2240    -1.7680 hc         1 91V       0.044700
     51 H18         -3.3070     1.4940    -2.0300 hc         1 91V       0.044700
     52 H19         -1.8670     2.0570    -0.0980 hc         1 91V       0.051700
     53 H20         -1.6790     0.3520     0.2810 hc         1 91V       0.051700
     54 H21         -0.4820    -0.0460    -1.8230 h1         1 91V       0.029200
     55 H22         -0.8970     1.5590    -2.4060 h1         1 91V       0.029200
     56 H24          1.2850    -0.1680     0.0090 h1         1 91V       0.035200
     57 H25          0.2930     0.9160     0.9750 h1         1 91V       0.035200
     58 H26          3.7870    -0.6140     1.1400 h1         1 91V       0.042700
     59 H27          5.4150    -3.2720    -3.2660 ha         1 91V       0.130250
     60 H28          5.7830    -4.8550     0.6940 ha         1 91V       0.130250
     61 H29          5.0440     0.0300     2.9520 ha         1 91V       0.134500
     62 H30          6.6580     0.6290    -0.9660 ha         1 91V       0.134500
     63 H31         -5.5240     0.5410    -2.0130 hn         1 91V       0.442800
     64 H32         -7.7470     0.0040    -2.3240 ha         1 91V       0.149000
     65 H33         -7.5800    -0.0460     3.5220 h5         1 91V       0.084800
     66 C3          -0.6330     1.0010    -1.5020 c3         1 91V       0.170800
@<TRIPOS>BOND
     1     1     2 1   
     2     1    16 1   
     3     1    34 1   
     4     1    35 1   
     5     2     3 1   
     6     2    36 1   
     7     2    37 1   
     8     3     4 1   
     9     3    18 1   
    10     3    38 1   
    11     4    17 1   
    12     4    39 1   
    13     4    40 1   
    14     5    20 ar  
    15     5    21 ar  
    16     5    41 1   
    17     6    21 ar  
    18     6    22 ar  
    19     6    42 1   
    20     7    20 ar  
    21     7    22 ar  
    22     7    43 1   
    23     8     9 ar  
    24     8    24 ar  
    25     8    44 1   
    26     9    10 ar  
    27     9    45 1   
    28    10    25 ar  
    29    10    46 1   
    30    11    14 1   
    31    11    26 1   
    32    11    47 1   
    33    11    48 1   
    34    12    26 1   
    35    12    27 1   
    36    12    33 2   
    37    13    27 2   
    38    13    28 1   
    39    13    49 1   
    40    14    15 1   
    41    14    50 1   
    42    14    51 1   
    43    15    52 1   
    44    15    53 1   
    45    15    66 1   
    46    16    17 1   
    47    16    66 1   
    48    17    56 1   
    49    17    57 1   
    50    18    19 1   
    51    19    20 1   
    52    19    23 1   
    53    19    58 1   
    54    21    59 1   
    55    22    60 1   
    56    23    24 ar  
    57    23    25 ar  
    58    24    61 1   
    59    25    62 1   
    60    26    63 1   
    61    27    64 1   
    62    28    29 2   
    63    28    32 1   
    64    29    30 1   
    65    30    31 2   
    66    31    32 1   
    67    31    65 1   
    68    32    33 1   
    69    54    66 1   
    70    55    66 1   
@<TRIPOS>SUBSTRUCTURE
     1 91V         1 TEMP              0 ****  ****    0 ROOT
