@<TRIPOS>MOLECULE
91W
   76    79     1     0     0
SMALL
bcc


@<TRIPOS>ATOM
      1 O3          -4.8440     2.1330    -1.4690 oh         1 91W      -0.593800
      2 C25         -5.4790     2.3540    -0.2230 c6         1 91W       0.188300
      3 C24         -6.9460     1.9780    -0.3810 c6         1 91W      -0.065400
      4 C23         -7.1360     0.4850    -0.6080 c6         1 91W       0.153100
      5 O2          -8.5260     0.2430    -0.6850 oh         1 91W      -0.599800
      6 C22         -6.4860    -0.3080     0.5290 c6         1 91W      -0.074200
      7 C26         -4.8240     1.5160     0.8530 ce         1 91W      -0.124200
      8 C27         -4.1450     2.0790     1.8500 c2         1 91W      -0.196000
      9 C21         -5.0390     0.0640     0.7050 ce         1 91W      -0.066200
     10 C20         -4.0640    -0.8610     0.6940 cf         1 91W      -0.112000
     11 C19         -2.6390    -0.6110     0.7900 cf         1 91W      -0.142000
     12 C15         -1.6720    -1.5400     0.8410 c2         1 91W      -0.077400
     13 C2          -0.2150    -1.2000     0.9110 c5         1 91W      -0.037500
     14 C16         -1.8870    -3.0280     0.8360 c6         1 91W      -0.042200
     15 C17         -1.0680    -3.7080    -0.2670 c6         1 91W      -0.072400
     16 C18          0.4080    -3.3090    -0.2390 c6         1 91W      -0.064400
     17 C1           0.5920    -1.7880    -0.2760 c5         1 91W      -0.037000
     18 C            0.0930    -1.2060    -1.6010 c3         1 91W      -0.080100
     19 C5           2.0100    -1.2580     0.0740 c5         1 91W      -0.043700
     20 C4           1.7320     0.1750     0.6130 c5         1 91W      -0.068400
     21 C3           0.2400     0.2460     0.9890 c5         1 91W      -0.073400
     22 C6           3.0990    -1.3040    -1.0150 c3         1 91W      -0.042700
     23 C14          3.1940    -2.6600    -1.7160 c3         1 91W      -0.092100
     24 C7           4.4950    -1.0000    -0.4600 c5         1 91W       0.141100
     25 C13          5.5990    -0.9070    -1.5290 c5         1 91W      -0.110400
     26 C12          6.5390     0.1950    -1.0190 c5         1 91W      -0.102400
     27 C8           5.8810     0.6570     0.2870 c5         1 91W       0.115100
     28 O            4.5380     0.2470     0.2010 os         1 91W      -0.402600
     29 C9           5.9370     2.1650     0.5770 c3         1 91W       0.167800
     30 C11          5.4020     2.4550     1.9780 c3         1 91W      -0.096100
     31 O1           7.2920     2.5820     0.4750 oh         1 91W      -0.597800
     32 C10          5.1520     2.9730    -0.4470 c3         1 91W      -0.096100
     33 H1          -3.9050     2.3190    -1.3630 ho         1 91W       0.405000
     34 H2          -5.4150     3.4120     0.0640 h1         1 91W       0.036700
     35 H3          -7.4740     2.2720     0.5310 hc         1 91W       0.062200
     36 H4          -7.3830     2.5500    -1.2050 hc         1 91W       0.062200
     37 H5          -6.6470     0.1990    -1.5480 h1         1 91W       0.049700
     38 H6          -8.6590    -0.6880    -0.8900 ho         1 91W       0.402000
     39 H7          -7.0350    -0.0820     1.4510 hc         1 91W       0.051200
     40 H8          -6.5860    -1.3820     0.3450 hc         1 91W       0.051200
     41 H9          -3.6870     1.4920     2.6370 ha         1 91W       0.118500
     42 H10         -4.0370     3.1550     1.9170 ha         1 91W       0.118500
     43 H11         -4.3800    -1.8920     0.5700 ha         1 91W       0.119000
     44 H12         -2.3420     0.4310     0.8160 ha         1 91W       0.124000
     45 H13          0.1740    -1.7130     1.8060 hc         1 91W       0.052700
     46 H14         -1.5540    -3.4230     1.8040 hc         1 91W       0.046200
     47 H15         -2.9380    -3.3010     0.7380 hc         1 91W       0.046200
     48 H16         -1.1560    -4.7920    -0.1610 hc         1 91W       0.040700
     49 H17         -1.4990    -3.4620    -1.2410 hc         1 91W       0.040700
     50 H18          0.8670    -3.6940     0.6800 hc         1 91W       0.039700
     51 H19          0.9180    -3.8000    -1.0680 hc         1 91W       0.039700
     52 H20         -0.9840    -1.3360    -1.7170 hc         1 91W       0.034700
     53 H21          0.2920    -0.1360    -1.6820 hc         1 91W       0.034700
     54 H22          0.5710    -1.6870    -2.4540 hc         1 91W       0.034700
     55 H23          2.3640    -1.8810     0.9080 hc         1 91W       0.043700
     56 H24          2.3640     0.3980     1.4690 hc         1 91W       0.049700
     57 H25          1.9730     0.9220    -0.1460 hc         1 91W       0.049700
     58 H26         -0.3070     0.8710     0.2810 hc         1 91W       0.042200
     59 H27          0.0730     0.6730     1.9790 hc         1 91W       0.042200
     60 H28          2.8760    -0.5390    -1.7700 hc         1 91W       0.057700
     61 H29          2.3000    -2.8930    -2.2890 hc         1 91W       0.036033
     62 H30          4.0250    -2.6860    -2.4210 hc         1 91W       0.036033
     63 H31          3.3480    -3.4670    -0.9940 hc         1 91W       0.036033
     64 H32          4.7520    -1.7990     0.2570 h1         1 91W       0.033700
     65 H33          6.1090    -1.8600    -1.6630 hc         1 91W       0.051200
     66 H34          5.1690    -0.6330    -2.4960 hc         1 91W       0.051200
     67 H35          7.5500    -0.1710    -0.8400 hc         1 91W       0.056700
     68 H36          6.6190     1.0050    -1.7440 hc         1 91W       0.056700
     69 H37          6.3730     0.1360     1.1280 h1         1 91W       0.026700
     70 H38          5.4780     3.5200     2.2030 hc         1 91W       0.044200
     71 H39          4.3540     2.1690     2.0730 hc         1 91W       0.044200
     72 H40          5.9640     1.9080     2.7380 hc         1 91W       0.044200
     73 H41          7.8030     2.1240     1.1520 ho         1 91W       0.400000
     74 H42          5.4510     2.7530    -1.4720 hc         1 91W       0.044200
     75 H43          4.0870     2.7700    -0.3570 hc         1 91W       0.044200
     76 H44          5.3030     4.0400    -0.2770 hc         1 91W       0.044200
@<TRIPOS>BOND
     1     1     2 1   
     2     1    33 1   
     3     2     3 1   
     4     2     7 1   
     5     2    34 1   
     6     3     4 1   
     7     3    35 1   
     8     3    36 1   
     9     4     5 1   
    10     4     6 1   
    11     4    37 1   
    12     5    38 1   
    13     6     9 1   
    14     6    39 1   
    15     6    40 1   
    16     7     8 2   
    17     7     9 1   
    18     8    41 1   
    19     8    42 1   
    20     9    10 2   
    21    10    11 1   
    22    10    43 1   
    23    11    12 2   
    24    11    44 1   
    25    12    13 1   
    26    12    14 1   
    27    13    17 1   
    28    13    21 1   
    29    13    45 1   
    30    14    15 1   
    31    14    46 1   
    32    14    47 1   
    33    15    16 1   
    34    15    48 1   
    35    15    49 1   
    36    16    17 1   
    37    16    50 1   
    38    16    51 1   
    39    17    18 1   
    40    17    19 1   
    41    18    52 1   
    42    18    53 1   
    43    18    54 1   
    44    19    20 1   
    45    19    22 1   
    46    19    55 1   
    47    20    21 1   
    48    20    56 1   
    49    20    57 1   
    50    21    58 1   
    51    21    59 1   
    52    22    23 1   
    53    22    24 1   
    54    22    60 1   
    55    23    61 1   
    56    23    62 1   
    57    23    63 1   
    58    24    25 1   
    59    24    28 1   
    60    24    64 1   
    61    25    26 1   
    62    25    65 1   
    63    25    66 1   
    64    26    27 1   
    65    26    67 1   
    66    26    68 1   
    67    27    28 1   
    68    27    29 1   
    69    27    69 1   
    70    29    30 1   
    71    29    31 1   
    72    29    32 1   
    73    30    70 1   
    74    30    71 1   
    75    30    72 1   
    76    31    73 1   
    77    32    74 1   
    78    32    75 1   
    79    32    76 1   
@<TRIPOS>SUBSTRUCTURE
     1 91W         1 TEMP              0 ****  ****    0 ROOT
