@<TRIPOS>MOLECULE
91W
   76    79     1     0     0
SMALL
No Charge or Current Charge


@<TRIPOS>ATOM
      1 O3          -4.9910     2.6050    -0.9490 oh         1 91W      -0.656000
      2 C25         -5.6560     2.4700     0.3080 c6         1 91W       0.211500
      3 C24         -7.1490     2.1160     0.1060 c6         1 91W      -0.065400
      4 C23         -7.3350     0.6780    -0.4350 c6         1 91W       0.176300
      5 O2          -8.7320     0.3740    -0.5420 oh         1 91W      -0.662000
      6 C22         -6.6370    -0.3480     0.4920 c6         1 91W      -0.074200
      7 C26         -4.9420     1.3930     1.1400 ce         1 91W      -0.124200
      8 C27         -4.2120     1.7100     2.2330 c2         1 91W      -0.296000
      9 C21         -5.1570     0.0050     0.6880 ce         1 91W      -0.066200
     10 C20         -4.1810    -0.9340     0.5030 cf         1 91W      -0.162000
     11 C19         -2.7390    -0.7100     0.6410 cf         1 91W      -0.192000
     12 C15         -1.7490    -1.6490     0.6350 c2         1 91W      -0.077400
     13 C2          -0.2550    -1.3090     0.7990 c5         1 91W      -0.037500
     14 C16         -1.9940    -3.1600     0.5380 c6         1 91W      -0.042200
     15 C17         -1.1230    -3.8210    -0.5600 c6         1 91W      -0.072400
     16 C18          0.3730    -3.4090    -0.4550 c6         1 91W      -0.064400
     17 C1           0.5600    -1.8520    -0.4270 c5         1 91W      -0.037000
     18 C            0.1270    -1.2650    -1.8160 c3         1 91W      -0.080100
     19 C5           1.9840    -1.3270     0.0390 c5         1 91W      -0.043700
     20 C4           1.6510     0.1420     0.5210 c5         1 91W      -0.068400
     21 C3           0.1190     0.1930     0.8030 c5         1 91W      -0.073400
     22 C6           3.2250    -1.4050    -0.9410 c3         1 91W      -0.042700
     23 C14          3.3920    -2.8060    -1.5900 c3         1 91W      -0.092100
     24 C7           4.5810    -0.9450    -0.2910 c5         1 91W       0.164300
     25 C13          5.8470    -0.9830    -1.1890 c5         1 91W      -0.110400
     26 C12          6.8340    -0.0810    -0.3900 c5         1 91W      -0.102400
     27 C8           5.8850     0.8200     0.4690 c5         1 91W       0.138300
     28 O            4.5580     0.4510     0.0410 os         1 91W      -0.449000
     29 C9           6.0840     2.3780     0.3750 c3         1 91W       0.191000
     30 C11          5.1500     3.1150     1.3670 c3         1 91W      -0.096100
     31 O1           7.4330     2.7070     0.7420 oh         1 91W      -0.720000
     32 C10          5.8540     2.9260    -1.0560 c3         1 91W      -0.096100
     33 H1          -4.0340     2.5290    -0.7500 ho         1 91W       0.444000
     34 H2          -5.6070     3.4280     0.8480 h1         1 91W       0.036700
     35 H3          -7.6710     2.2150     1.0670 hc         1 91W       0.062200
     36 H4          -7.6150     2.8400    -0.5760 hc         1 91W       0.062200
     37 H5          -6.8650     0.6190    -1.4290 h1         1 91W       0.049700
     38 H6          -8.7960    -0.5150    -0.9540 ho         1 91W       0.441000
     39 H7          -7.1350    -0.3660     1.4720 hc         1 91W       0.051200
     40 H8          -6.7440    -1.3570     0.0720 hc         1 91W       0.051200
     41 H9          -3.7300     0.9430     2.8390 ha         1 91W       0.168500
     42 H10         -4.0800     2.7420     2.5610 ha         1 91W       0.168500
     43 H11         -4.5110    -1.9250     0.1970 ha         1 91W       0.169000
     44 H12         -2.4610     0.3350     0.7580 ha         1 91W       0.174000
     45 H13          0.0970    -1.7650     1.7330 hc         1 91W       0.052700
     46 H14         -1.7470    -3.6140     1.5080 hc         1 91W       0.046200
     47 H15         -3.0420    -3.4140     0.3560 hc         1 91W       0.046200
     48 H16         -1.2090    -4.9140    -0.4870 hc         1 91W       0.040700
     49 H17         -1.5180    -3.5550    -1.5490 hc         1 91W       0.040700
     50 H18          0.8020    -3.8480     0.4560 hc         1 91W       0.039700
     51 H19          0.9050    -3.8710    -1.2920 hc         1 91W       0.039700
     52 H20         -0.9560    -1.3300    -1.9720 hc         1 91W       0.034700
     53 H21          0.4010    -0.2110    -1.9340 hc         1 91W       0.034700
     54 H22          0.6040    -1.8030    -2.6420 hc         1 91W       0.034700
     55 H23          2.2950    -1.9120     0.9130 hc         1 91W       0.043700
     56 H24          2.2250     0.3950     1.4200 hc         1 91W       0.049700
     57 H25          1.9150     0.8900    -0.2350 hc         1 91W       0.049700
     58 H26         -0.3960     0.7620     0.0210 hc         1 91W       0.042200
     59 H27         -0.1120     0.6750     1.7590 hc         1 91W       0.042200
     60 H28          3.0270    -0.7170    -1.7710 hc         1 91W       0.057700
     61 H29          2.5850    -3.0050    -2.3000 hc         1 91W       0.036033
     62 H30          4.3130    -2.8830    -2.1760 hc         1 91W       0.036033
     63 H31          3.4070    -3.5950    -0.8280 hc         1 91W       0.036033
     64 H32          4.7440    -1.5230     0.6300 h1         1 91W       0.033700
     65 H33          6.2450    -1.9940    -1.3270 hc         1 91W       0.051200
     66 H34          5.6420    -0.5660    -2.1820 hc         1 91W       0.051200
     67 H35          7.4820    -0.6790     0.2620 hc         1 91W       0.056700
     68 H36          7.4950     0.4860    -1.0520 hc         1 91W       0.056700
     69 H37          5.9760     0.5280     1.5250 h1         1 91W       0.026700
     70 H38          5.3320     4.1960     1.3490 hc         1 91W       0.044200
     71 H39          4.0980     2.9450     1.1080 hc         1 91W       0.044200
     72 H40          5.3050     2.7590     2.3930 hc         1 91W       0.044200
     73 H41          7.5480     2.4500     1.6850 ho         1 91W       0.499000
     74 H42          6.5440     2.4730    -1.7760 hc         1 91W       0.044200
     75 H43          4.8310     2.7220    -1.3930 hc         1 91W       0.044200
     76 H44          6.0070     4.0120    -1.0870 hc         1 91W       0.044200
@<TRIPOS>BOND
     1     1     2 1   
     2     1    33 1   
     3     2     3 1   
     4     2     7 1   
     5     2    34 1   
     6     3     4 1   
     7     3    35 1   
     8     3    36 1   
     9     4     5 1   
    10     4     6 1   
    11     4    37 1   
    12     5    38 1   
    13     6     9 1   
    14     6    39 1   
    15     6    40 1   
    16     7     8 2   
    17     7     9 1   
    18     8    41 1   
    19     8    42 1   
    20     9    10 2   
    21    10    11 1   
    22    10    43 1   
    23    11    12 2   
    24    11    44 1   
    25    12    13 1   
    26    12    14 1   
    27    13    17 1   
    28    13    21 1   
    29    13    45 1   
    30    14    15 1   
    31    14    46 1   
    32    14    47 1   
    33    15    16 1   
    34    15    48 1   
    35    15    49 1   
    36    16    17 1   
    37    16    50 1   
    38    16    51 1   
    39    17    18 1   
    40    17    19 1   
    41    18    52 1   
    42    18    53 1   
    43    18    54 1   
    44    19    20 1   
    45    19    22 1   
    46    19    55 1   
    47    20    21 1   
    48    20    56 1   
    49    20    57 1   
    50    21    58 1   
    51    21    59 1   
    52    22    23 1   
    53    22    24 1   
    54    22    60 1   
    55    23    61 1   
    56    23    62 1   
    57    23    63 1   
    58    24    25 1   
    59    24    28 1   
    60    24    64 1   
    61    25    26 1   
    62    25    65 1   
    63    25    66 1   
    64    26    27 1   
    65    26    67 1   
    66    26    68 1   
    67    27    28 1   
    68    27    29 1   
    69    27    69 1   
    70    29    30 1   
    71    29    31 1   
    72    29    32 1   
    73    30    70 1   
    74    30    71 1   
    75    30    72 1   
    76    31    73 1   
    77    32    74 1   
    78    32    75 1   
    79    32    76 1   
@<TRIPOS>SUBSTRUCTURE
     1 91W         1 TEMP              0 ****  ****    0 ROOT
