@<TRIPOS>MOLECULE
91X
   30    33     1     0     0
SMALL
No Charge or Current Charge


@<TRIPOS>ATOM
      1 C15         -0.0670    -0.1170    -0.1810 ca         1 91X      -0.223500
      2 O17          1.2740    -1.6390    -1.8490 o          1 91X      -0.507500
      3 C19          2.7250    -0.6040     0.0850 ca         1 91X      -0.223500
      4 C21          5.0520    -0.8540     0.7730 ca         1 91X      -0.096000
      5 C22          5.2080     0.5390     0.7490 ca         1 91X      -0.071000
      6 C01          4.1250     1.3630     0.3980 ca         1 91X      -0.068000
      7 C02          2.8650     0.8090     0.0680 ca         1 91X      -0.088600
      8 C03          1.7170     1.7490    -0.2690 c          1 91X       0.581300
      9 C05          0.2810     1.2570    -0.1780 ca         1 91X      -0.067600
     10 C06         -0.7600     2.2060    -0.0670 ca         1 91X      -0.072000
     11 C07         -2.1010     1.8050     0.0530 ca         1 91X      -0.063000
     12 C08         -2.4440     0.4370     0.0630 ca         1 91X      -0.128500
     13 C09         -3.8430     0.0020     0.1880 cc         1 91X       0.442000
     14 C14         -1.4140    -0.5190    -0.0590 ca         1 91X       0.024000
     15 C20          3.8150    -1.4260     0.4390 ca         1 91X      -0.021000
     16 N10         -4.9350     0.8100     0.3150 na         1 91X      -0.207700
     17 N11         -6.0680     0.0690     0.4050 nc         1 91X      -0.195800
     18 N12         -5.6540    -1.1670     0.3310 nd         1 91X      -0.033000
     19 N13         -4.2870    -1.2390     0.1970 nd         1 91X      -0.374000
     20 O04          1.9500     2.9090    -0.5960 o          1 91X      -0.483100
     21 O18          0.8990    -2.4980     0.5120 o          1 91X      -0.507500
     22 S16          1.1820    -1.3860    -0.4050 sy         1 91X       1.032000
     23 H1           5.8910    -1.4920     1.0440 ha         1 91X       0.126000
     24 H2           6.1680     0.9830     1.0050 ha         1 91X       0.126000
     25 H3           4.2690     2.4420     0.3970 ha         1 91X       0.138000
     26 H4          -0.5320     3.2700    -0.0610 ha         1 91X       0.143000
     27 H5          -2.8660     2.5720     0.1410 ha         1 91X       0.115000
     28 H6          -1.6600    -1.5810    -0.0690 ha         1 91X       0.170000
     29 H7           3.7100    -2.5100     0.4460 ha         1 91X       0.144000
     30 H8          -4.9460     1.8220     0.3440 hn         1 91X       0.389000
@<TRIPOS>BOND
     1     1     9 ar  
     2     1    14 ar  
     3     1    22 1   
     4     2    22 2   
     5     3     7 ar  
     6     3    15 ar  
     7     3    22 1   
     8     4     5 ar  
     9     4    15 ar  
    10     4    23 1   
    11     5     6 ar  
    12     5    24 1   
    13     6     7 ar  
    14     6    25 1   
    15     7     8 1   
    16     8     9 1   
    17     8    20 2   
    18     9    10 ar  
    19    10    11 ar  
    20    10    26 1   
    21    11    12 ar  
    22    11    27 1   
    23    12    13 1   
    24    12    14 ar  
    25    13    16 1   
    26    13    19 2   
    27    14    28 1   
    28    15    29 1   
    29    16    17 1   
    30    16    30 1   
    31    17    18 2   
    32    18    19 1   
    33    21    22 2   
@<TRIPOS>SUBSTRUCTURE
     1 91X         1 TEMP              0 ****  ****    0 ROOT
