@<TRIPOS>MOLECULE
91X
   30    33     1     0     0
SMALL
bcc


@<TRIPOS>ATOM
      1 C15         -0.0440    -0.0840    -0.2240 ca         1 91X      -0.223500
      2 O17          1.3190    -1.3710    -2.0320 o          1 91X      -0.578300
      3 C19          2.6430    -0.5780     0.0730 ca         1 91X      -0.223500
      4 C21          4.8680    -0.8650     0.8860 ca         1 91X      -0.114000
      5 C22          5.0560     0.5080     0.8320 ca         1 91X      -0.089000
      6 C01          4.0340     1.3400     0.4000 ca         1 91X      -0.086000
      7 C02          2.8080     0.8060     0.0140 ca         1 91X      -0.088600
      8 C03          1.7140     1.7360    -0.3730 c          1 91X       0.581300
      9 C05          0.3050     1.2650    -0.2620 ca         1 91X      -0.067600
     10 C06         -0.7090     2.2060    -0.1280 ca         1 91X      -0.090000
     11 C07         -2.0230     1.8060     0.0420 ca         1 91X      -0.081000
     12 C08         -2.3510     0.4540     0.0830 ca         1 91X      -0.128500
     13 C09         -3.7220     0.0020     0.2720 cc         1 91X       0.442000
     14 C14         -1.3470    -0.5030    -0.0560 ca         1 91X       0.006000
     15 C20          3.6550    -1.4200     0.4990 ca         1 91X      -0.039000
     16 N10         -4.8190     0.7610     0.3240 na         1 91X      -0.157400
     17 N11         -5.8700    -0.0150     0.5060 nc         1 91X      -0.195800
     18 N12         -5.4310    -1.2110     0.5650 nd         1 91X      -0.033000
     19 N13         -4.1100    -1.2430     0.4240 nd         1 91X      -0.374000
     20 O04          1.9530     2.8780    -0.6910 o          1 91X      -0.483100
     21 O18          0.8710    -2.5320     0.1460 o          1 91X      -0.578300
     22 S16          1.1790    -1.3110    -0.5840 sy         1 91X       1.173600
     23 H1           5.6650    -1.5100     1.2290 ha         1 91X       0.144000
     24 H2           6.0010     0.9360     1.1370 ha         1 91X       0.144000
     25 H3           4.1820     2.4110     0.3800 ha         1 91X       0.156000
     26 H4          -0.4730     3.2600    -0.1410 ha         1 91X       0.161000
     27 H5          -2.7830     2.5680     0.1510 ha         1 91X       0.133000
     28 H6          -1.5940    -1.5560    -0.0290 ha         1 91X       0.188000
     29 H7           3.5110    -2.4910     0.5340 ha         1 91X       0.162000
     30 H8          -4.9340     1.7630     0.2430 hn         1 91X       0.338700
@<TRIPOS>BOND
     1     1     9 ar  
     2     1    14 ar  
     3     1    22 1   
     4     2    22 2   
     5     3     7 ar  
     6     3    15 ar  
     7     3    22 1   
     8     4     5 ar  
     9     4    15 ar  
    10     4    23 1   
    11     5     6 ar  
    12     5    24 1   
    13     6     7 ar  
    14     6    25 1   
    15     7     8 1   
    16     8     9 1   
    17     8    20 2   
    18     9    10 ar  
    19    10    11 ar  
    20    10    26 1   
    21    11    12 ar  
    22    11    27 1   
    23    12    13 1   
    24    12    14 ar  
    25    13    16 1   
    26    13    19 2   
    27    14    28 1   
    28    15    29 1   
    29    16    17 1   
    30    16    30 1   
    31    17    18 2   
    32    18    19 1   
    33    21    22 2   
@<TRIPOS>SUBSTRUCTURE
     1 91X         1 TEMP              0 ****  ****    0 ROOT
