@<TRIPOS>MOLECULE
91Y
   51    54     1     0     0
SMALL
No Charge or Current Charge


@<TRIPOS>ATOM
      1 N3          -2.3670    -0.6880    -0.1100 ns         1 91Y      -0.331900
      2 C4          -1.6580    -1.9070    -0.1540 ca         1 91Y       0.506900
      3 C6          -1.7700    -4.2080    -0.0170 ca         1 91Y       0.358900
      4 C7          -0.3620    -4.2940    -0.1550 ca         1 91Y       0.233900
      5 N12          1.9710    -0.9290    -0.5300 ns         1 91Y      -0.464900
      6 C13          2.8790     0.2230    -0.6210 c5         1 91Y       0.105700
      7 C15          5.2330     0.4030    -0.3950 ca         1 91Y      -0.089300
      8 C17          7.4010     1.2880     0.2250 ca         1 91Y      -0.109000
      9 C20          4.6770     0.9410     0.7490 ca         1 91Y      -0.089300
     10 C21          3.2040     0.6450     0.8670 c5         1 91Y      -0.046600
     11 C22         -4.0450     1.1180    -0.1380 c6         1 91Y      -0.144700
     12 C24         -5.2220     2.9320     1.2310 c6         1 91Y      -0.074400
     13 C26         -4.7790     3.2960    -1.2640 c6         1 91Y      -0.074400
     14 O1          -4.5660    -1.1980    -0.5750 o          1 91Y      -0.528100
     15 C2          -3.6990    -0.3800    -0.2940 c          1 91Y       0.614100
     16 N5          -2.4280    -3.0170    -0.0090 nb         1 91Y      -0.668000
     17 N8           0.4240    -3.1910    -0.2800 nb         1 91Y      -0.626000
     18 C9          -0.2300    -1.9770    -0.2730 ca         1 91Y       0.173500
     19 O11          0.1450     0.4280    -0.3570 o          1 91Y      -0.644100
     20 C14          4.2230    -0.3420    -1.2300 c5         1 91Y      -0.046600
     21 C16          6.5980     0.5640    -0.6780 ca         1 91Y      -0.093000
     22 C18          6.8330     1.8380     1.3930 ca         1 91Y      -0.109000
     23 C19          5.4610     1.6640     1.6620 ca         1 91Y      -0.093000
     24 C23         -4.9740     1.4110     1.0730 c6         1 91Y      -0.066900
     25 C25         -5.7500     3.5590    -0.0850 c6         1 91Y      -0.076400
     26 C27         -4.5250     1.7800    -1.4590 c6         1 91Y      -0.066900
     27 H1          -1.7680     0.1130     0.0500 hn         1 91Y       0.203000
     28 H2          -2.3760    -5.1060     0.0900 h4         1 91Y       0.035100
     29 H3           0.1400    -5.2610    -0.1580 h4         1 91Y       0.036100
     30 H4           2.2650    -1.9000    -0.5390 hn         1 91Y       0.344500
     31 H5           2.4930     1.0650    -1.2130 h1         1 91Y       0.081700
     32 H6           8.4610     1.4230     0.0210 ha         1 91Y       0.113000
     33 H7           2.6140     1.5120     1.1840 hc         1 91Y       0.061950
     34 H8           3.0270    -0.1610     1.5890 hc         1 91Y       0.061950
     35 H9          -3.0910     1.6090     0.1040 hc         1 91Y       0.066700
     36 H10         -5.9410     3.1090     2.0420 hc         1 91Y       0.041200
     37 H11         -4.2890     3.4310     1.5280 hc         1 91Y       0.041200
     38 H12         -5.1900     3.7250    -2.1880 hc         1 91Y       0.041200
     39 H13         -3.8260     3.8100    -1.0790 hc         1 91Y       0.041200
     40 H14          4.3370    -1.4240    -1.0980 hc         1 91Y       0.061950
     41 H15          4.3090    -0.1270    -2.3010 hc         1 91Y       0.061950
     42 H16          7.0310     0.1350    -1.5800 ha         1 91Y       0.115000
     43 H17          7.4560     2.3960     2.0890 ha         1 91Y       0.113000
     44 H18          5.0180     2.0820     2.5630 ha         1 91Y       0.115000
     45 H19         -5.9350     0.8950     0.9360 hc         1 91Y       0.051950
     46 H20         -4.5330     1.0090     1.9960 hc         1 91Y       0.051950
     47 H21         -6.7410     3.1450    -0.3210 hc         1 91Y       0.040700
     48 H22         -5.8880     4.6400     0.0480 hc         1 91Y       0.040700
     49 H23         -3.7790     1.6280    -2.2520 hc         1 91Y       0.051950
     50 H24         -5.4490     1.2940    -1.8030 hc         1 91Y       0.051950
     51 C10          0.6110    -0.7070    -0.3890 c          1 91Y       0.524600
@<TRIPOS>BOND
     1     1     2 1   
     2     1    15 1   
     3     1    27 1   
     4     2    16 ar  
     5     2    18 ar  
     6     3     4 ar  
     7     3    16 ar  
     8     3    28 1   
     9     4    17 ar  
    10     4    29 1   
    11     5     6 1   
    12     5    30 1   
    13     5    51 1   
    14     6    10 1   
    15     6    20 1   
    16     6    31 1   
    17     7     9 ar  
    18     7    20 1   
    19     7    21 ar  
    20     8    21 ar  
    21     8    22 ar  
    22     8    32 1   
    23     9    10 1   
    24     9    23 ar  
    25    10    33 1   
    26    10    34 1   
    27    11    15 1   
    28    11    24 1   
    29    11    26 1   
    30    11    35 1   
    31    12    24 1   
    32    12    25 1   
    33    12    36 1   
    34    12    37 1   
    35    13    25 1   
    36    13    26 1   
    37    13    38 1   
    38    13    39 1   
    39    14    15 2   
    40    17    18 ar  
    41    18    51 1   
    42    19    51 2   
    43    20    40 1   
    44    20    41 1   
    45    21    42 1   
    46    22    23 ar  
    47    22    43 1   
    48    23    44 1   
    49    24    45 1   
    50    24    46 1   
    51    25    47 1   
    52    25    48 1   
    53    26    49 1   
    54    26    50 1   
@<TRIPOS>SUBSTRUCTURE
     1 91Y         1 TEMP              0 ****  ****    0 ROOT
