@<TRIPOS>MOLECULE
91Y
   51    54     1     0     0
SMALL
bcc


@<TRIPOS>ATOM
      1 N3          -2.4180    -0.7280     0.2230 ns         1 91Y      -0.565400
      2 C4          -1.7810    -1.9310     0.0420 ca         1 91Y       0.506900
      3 C6          -1.8370    -4.1930    -0.1480 ca         1 91Y       0.358900
      4 C7          -0.4620    -4.2400    -0.3230 ca         1 91Y       0.233900
      5 N12          1.7740    -0.9610    -0.3590 ns         1 91Y      -0.531900
      6 C13          2.7720     0.0790    -0.3490 c5         1 91Y       0.105700
      7 C15          5.0910     0.5220    -0.5440 ca         1 91Y      -0.089300
      8 C17          7.1940     1.6290    -0.2650 ca         1 91Y      -0.127000
      9 C20          4.7030     0.9360     0.7280 ca         1 91Y      -0.089300
     10 C21          3.3270     0.4280     1.0480 c5         1 91Y      -0.046600
     11 C22         -4.0300     1.0490     0.3040 c6         1 91Y      -0.144700
     12 C24         -5.7190     2.8410     0.8190 c6         1 91Y      -0.074400
     13 C26         -3.9550     3.2550    -0.9200 c6         1 91Y      -0.074400
     14 O1          -4.6330    -1.2650     0.0250 o          1 91Y      -0.528100
     15 C2          -3.7620    -0.4390     0.1780 c          1 91Y       0.681100
     16 N5          -2.4830    -3.0550     0.0330 nb         1 91Y      -0.668000
     17 N8           0.2430    -3.1240    -0.3030 nb         1 91Y      -0.626000
     18 C9          -0.3760    -1.9700    -0.1240 ca         1 91Y       0.173500
     19 O11          0.0170     0.3750     0.1160 o          1 91Y      -0.644100
     20 C14          4.0060    -0.2950    -1.1850 c5         1 91Y      -0.046600
     21 C16          6.3360     0.8630    -1.0480 ca         1 91Y      -0.111000
     22 C18          6.8060     2.0450     1.0050 ca         1 91Y      -0.127000
     23 C19          5.5560     1.7000     1.5090 ca         1 91Y      -0.111000
     24 C23         -5.4710     1.3390     0.7160 c6         1 91Y      -0.066900
     25 C25         -5.3860     3.5520    -0.4880 c6         1 91Y      -0.076400
     26 C27         -3.6970     1.7560    -1.0220 c6         1 91Y      -0.066900
     27 H1          -1.7690     0.0540     0.3030 hn         1 91Y       0.369500
     28 H2          -2.4280    -5.1010    -0.1510 h4         1 91Y       0.035100
     29 H3           0.0620    -5.1740    -0.4760 h4         1 91Y       0.036100
     30 H4           2.0660    -1.9210    -0.4780 hn         1 91Y       0.344500
     31 H5           2.3290     0.9820    -0.7740 h1         1 91Y       0.081700
     32 H6           8.1680     1.9080    -0.6470 ha         1 91Y       0.131000
     33 H7           2.7020     1.1490     1.5750 hc         1 91Y       0.061950
     34 H8           3.3810    -0.4720     1.6700 hc         1 91Y       0.061950
     35 H9          -3.3600     1.4520     1.0740 hc         1 91Y       0.066700
     36 H10         -6.7610     3.0210     1.0950 hc         1 91Y       0.041200
     37 H11         -5.1080     3.2580     1.6270 hc         1 91Y       0.041200
     38 H12         -3.7380     3.7290    -1.8800 hc         1 91Y       0.041200
     39 H13         -3.2590     3.6880    -0.1940 hc         1 91Y       0.041200
     40 H14          4.2280    -1.3650    -1.0900 hc         1 91Y       0.061950
     41 H15          3.8690    -0.0880    -2.2470 hc         1 91Y       0.061950
     42 H16          6.6380     0.5440    -2.0380 ha         1 91Y       0.133000
     43 H17          7.4790     2.6470     1.6010 ha         1 91Y       0.131000
     44 H18          5.2570     2.0300     2.4970 ha         1 91Y       0.133000
     45 H19         -6.1540     0.9100    -0.0230 hc         1 91Y       0.051950
     46 H20         -5.6960     0.8560     1.6700 hc         1 91Y       0.051950
     47 H21         -6.0790     3.2200    -1.2690 hc         1 91Y       0.040700
     48 H22         -5.5320     4.6300    -0.3800 hc         1 91Y       0.040700
     49 H23         -2.6560     1.5830    -1.3050 hc         1 91Y       0.051950
     50 H24         -4.3130     1.3270    -1.8200 hc         1 91Y       0.051950
     51 C10          0.4850    -0.7430    -0.1080 c          1 91Y       0.591600
@<TRIPOS>BOND
     1     1     2 1   
     2     1    15 1   
     3     1    27 1   
     4     2    16 ar  
     5     2    18 ar  
     6     3     4 ar  
     7     3    16 ar  
     8     3    28 1   
     9     4    17 ar  
    10     4    29 1   
    11     5     6 1   
    12     5    30 1   
    13     5    51 1   
    14     6    10 1   
    15     6    20 1   
    16     6    31 1   
    17     7     9 ar  
    18     7    20 1   
    19     7    21 ar  
    20     8    21 ar  
    21     8    22 ar  
    22     8    32 1   
    23     9    10 1   
    24     9    23 ar  
    25    10    33 1   
    26    10    34 1   
    27    11    15 1   
    28    11    24 1   
    29    11    26 1   
    30    11    35 1   
    31    12    24 1   
    32    12    25 1   
    33    12    36 1   
    34    12    37 1   
    35    13    25 1   
    36    13    26 1   
    37    13    38 1   
    38    13    39 1   
    39    14    15 2   
    40    17    18 ar  
    41    18    51 1   
    42    19    51 2   
    43    20    40 1   
    44    20    41 1   
    45    21    42 1   
    46    22    23 ar  
    47    22    43 1   
    48    23    44 1   
    49    24    45 1   
    50    24    46 1   
    51    25    47 1   
    52    25    48 1   
    53    26    49 1   
    54    26    50 1   
@<TRIPOS>SUBSTRUCTURE
     1 91Y         1 TEMP              0 ****  ****    0 ROOT
