@<TRIPOS>MOLECULE
91Z
   67    70     1     0     0
SMALL
abcg2


@<TRIPOS>ATOM
      1 N1         -19.7890    16.1900   -25.3400 n          1 91Z      -0.393800
      2 N3         -18.3220    18.3570   -27.8160 ns         1 91Z      -0.514900
      3 C4         -20.7050    14.6750   -26.8740 cx         1 91Z      -0.125700
      4 C5         -19.4330    13.9250   -27.1460 cx         1 91Z      -0.073000
      5 C6         -18.5260    13.4500   -26.0360 c3         1 91Z      -0.067100
      6 C7         -19.4890    12.9590   -28.3080 c3         1 91Z      -0.067100
      7 C8         -20.9200    15.2830   -25.5140 c5         1 91Z       0.132000
      8 C10        -20.3570    16.5460   -23.0100 c3         1 91Z       0.124800
      9 C13        -19.3530    17.3050   -18.3200 ca         1 91Z      -0.175000
     10 C15        -21.3540    16.0380   -18.7680 ca         1 91Z      -0.175000
     11 C17        -18.3420    19.6840   -28.3960 c3         1 91Z       0.074700
     12 C20        -17.2230    20.5420   -27.8080 c3         1 91Z      -0.076400
     13 C21        -17.2540    20.5930   -26.2900 c5         1 91Z      -0.157700
     14 C22        -18.4940    21.2310   -25.6670 c5         1 91Z      -0.090400
     15 C24        -16.1130    21.4090   -25.7000 c          1 91Z       0.564000
     16 O1         -20.4290    18.3380   -26.9690 o          1 91Z      -0.582100
     17 C1         -19.3380    17.8170   -27.1150 c          1 91Z       0.594100
     18 C2         -19.0370    16.4280   -26.5540 c5         1 91Z       0.056700
     19 C3         -19.5450    15.3770   -27.5210 cx         1 91Z      -0.135700
     20 C9         -19.5170    16.8890   -24.2290 c          1 91Z       0.598100
     21 N2         -20.0670    17.4850   -21.9520 nu         1 91Z      -0.913200
     22 C11        -20.1800    17.1250   -20.6250 ca         1 91Z       0.211000
     23 C12        -19.2640    17.5730   -19.6690 ca         1 91Z       0.155000
     24 F1         -18.2370    18.3180   -20.1040 f          1 91Z      -0.172500
     25 C14        -20.4090    16.5270   -17.8910 ca         1 91Z       0.184000
     26 F2         -20.5220    16.2450   -16.5860 f          1 91Z      -0.167000
     27 C16        -21.2240    16.3580   -20.1060 ca         1 91Z       0.155000
     28 F3         -22.1650    15.9100   -20.9500 f          1 91Z      -0.172500
     29 O2         -18.6310    17.7330   -24.1830 o          1 91Z      -0.613100
     30 C18        -18.2460    19.5470   -29.9330 c3         1 91Z       0.071300
     31 O3         -19.2430    18.6970   -30.4320 oh         1 91Z      -0.658000
     32 C19        -18.3970    20.9090   -30.6020 c          1 91Z       0.613100
     33 N4         -19.6600    21.2880   -30.8310 nt         1 91Z      -0.591000
     34 O4         -17.4210    21.5960   -30.8590 o          1 91Z      -0.600100
     35 C23        -17.9850    21.7680   -24.3290 c5         1 91Z       0.100000
     36 N5         -16.5970    22.0550   -24.6250 ns         1 91Z      -0.513900
     37 O5         -14.9670    21.4540   -26.1130 o          1 91Z      -0.557000
     38 H1         -17.4330    17.8770   -27.8030 hn         1 91Z       0.316500
     39 H2         -21.5920    14.4220   -27.4420 hc         1 91Z       0.104700
     40 H3         -18.4490    14.1390   -25.1970 hc         1 91Z       0.042867
     41 H4         -18.8810    12.4950   -25.6420 hc         1 91Z       0.042867
     42 H5         -17.5170    13.2880   -26.4200 hc         1 91Z       0.042867
     43 H6         -19.8570    11.9850   -27.9810 hc         1 91Z       0.042867
     44 H7         -20.1480    13.3120   -29.1020 hc         1 91Z       0.042867
     45 H8         -18.4970    12.8130   -28.7400 hc         1 91Z       0.042867
     46 H9         -21.8670    15.8290   -25.4920 h1         1 91Z       0.060700
     47 H10        -20.9470    14.5340   -24.7180 h1         1 91Z       0.060700
     48 H11        -21.4130    16.5680   -23.2880 h1         1 91Z       0.067700
     49 H12        -20.1240    15.5100   -22.7310 h1         1 91Z       0.067700
     50 H14        -22.1860    15.4370   -18.4280 ha         1 91Z       0.153500
     51 H15        -19.3120    20.1220   -28.1510 h1         1 91Z       0.091700
     52 H16        -16.2550    20.1560   -28.1400 hc         1 91Z       0.072700
     53 H17        -17.3080    21.5580   -28.1990 hc         1 91Z       0.072700
     54 H18        -17.1310    19.5800   -25.8850 hc         1 91Z       0.082700
     55 H19        -18.8370    22.0610   -26.2910 hc         1 91Z       0.062700
     56 H20        -19.3240    20.5390   -25.5440 hc         1 91Z       0.062700
     57 H21        -17.9650    16.3230   -26.3600 h1         1 91Z       0.085700
     58 H22        -19.5570    15.6380   -28.5730 hc         1 91Z       0.099700
     59 H23        -19.2380    18.0240   -22.1590 hn         1 91Z       0.497000
     60 H24        -17.2410    19.1780   -30.1810 h1         1 91Z       0.063700
     61 H25        -19.1710    17.8480   -29.9830 ho         1 91Z       0.456000
     62 H26        -19.8520    22.1710   -31.2750 hn         1 91Z       0.322500
     63 H27        -20.4350    20.6680   -30.6660 hn         1 91Z       0.322500
     64 H28        -18.5120    22.6650   -24.0060 h1         1 91Z       0.047700
     65 H29        -18.0760    21.0200   -23.5360 h1         1 91Z       0.047700
     66 H30        -15.9990    22.5650   -23.9940 hn         1 91Z       0.326500
     67 H13        -18.6090    17.6850   -17.6320 ha         1 91Z       0.153500
@<TRIPOS>BOND
     1     1     7 1   
     2     1    18 1   
     3     1    20 1   
     4     2    11 1   
     5     2    17 1   
     6     2    38 1   
     7     3     4 1   
     8     3     7 1   
     9     3    19 1   
    10     3    39 1   
    11     4     5 1   
    12     4     6 1   
    13     4    19 1   
    14     5    40 1   
    15     5    41 1   
    16     5    42 1   
    17     6    43 1   
    18     6    44 1   
    19     6    45 1   
    20     7    46 1   
    21     7    47 1   
    22     8    20 1   
    23     8    21 1   
    24     8    48 1   
    25     8    49 1   
    26     9    23 ar  
    27     9    25 ar  
    28     9    67 1   
    29    10    25 ar  
    30    10    27 ar  
    31    10    50 1   
    32    11    12 1   
    33    11    30 1   
    34    11    51 1   
    35    12    13 1   
    36    12    52 1   
    37    12    53 1   
    38    13    14 1   
    39    13    15 1   
    40    13    54 1   
    41    14    35 1   
    42    14    55 1   
    43    14    56 1   
    44    15    36 1   
    45    15    37 2   
    46    16    17 2   
    47    17    18 1   
    48    18    19 1   
    49    18    57 1   
    50    19    58 1   
    51    20    29 2   
    52    21    22 1   
    53    21    59 1   
    54    22    23 ar  
    55    22    27 ar  
    56    23    24 1   
    57    25    26 1   
    58    27    28 1   
    59    30    31 1   
    60    30    32 1   
    61    30    60 1   
    62    31    61 1   
    63    32    33 1   
    64    32    34 2   
    65    33    62 1   
    66    33    63 1   
    67    35    36 1   
    68    35    64 1   
    69    35    65 1   
    70    36    66 1   
@<TRIPOS>SUBSTRUCTURE
     1 91Z         1 TEMP              0 ****  ****    0 ROOT
