@<TRIPOS>MOLECULE
91Z
   67    70     1     0     0
SMALL
No Charge or Current Charge


@<TRIPOS>ATOM
      1 N1         -19.8070    16.1340   -25.2550 n          1 91Z      -0.393800
      2 N3         -18.6370    18.3570   -28.0000 ns         1 91Z      -0.514900
      3 C4         -20.5000    14.4670   -26.8030 cx         1 91Z      -0.125700
      4 C5         -19.1250    14.0050   -27.2660 cx         1 91Z      -0.073000
      5 C6         -17.9860    13.6700   -26.2870 c3         1 91Z      -0.067100
      6 C7         -19.0590    13.0530   -28.4600 c3         1 91Z      -0.067100
      7 C8         -20.6390    14.9100   -25.3400 c5         1 91Z       0.132000
      8 C10        -20.2710    16.3120   -22.7490 c3         1 91Z       0.124800
      9 C13        -20.4460    17.7330   -17.8640 ca         1 91Z      -0.175000
     10 C15        -21.9150    15.9130   -18.5170 ca         1 91Z      -0.175000
     11 C17        -18.5780    19.7130   -28.5750 c3         1 91Z       0.074700
     12 C20        -17.2250    20.3830   -28.2150 c3         1 91Z      -0.076400
     13 C21        -16.8900    20.4260   -26.6950 c5         1 91Z      -0.157700
     14 C22        -17.9000    21.2140   -25.8150 c5         1 91Z      -0.090400
     15 C24        -15.5580    21.1160   -26.3710 c          1 91Z       0.564000
     16 O1         -20.4690    18.6390   -26.6460 o          1 91Z      -0.582100
     17 C1         -19.5230    17.9550   -27.0160 c          1 91Z       0.594100
     18 C2         -19.1350    16.5210   -26.5320 c5         1 91Z       0.056700
     19 C3         -19.5940    15.4300   -27.5230 cx         1 91Z      -0.135700
     20 C9         -19.4870    16.7590   -24.0310 c          1 91Z       0.598100
     21 N2         -19.9440    17.1050   -21.5190 nu         1 91Z      -0.913200
     22 C11        -20.4600    16.9640   -20.2020 ca         1 91Z       0.211000
     23 C12        -19.9750    17.8250   -19.1830 ca         1 91Z       0.155000
     24 F1         -19.0370    18.7600   -19.4710 f          1 91Z      -0.172500
     25 C14        -21.4150    16.7780   -17.5360 ca         1 91Z       0.184000
     26 F2         -21.8690    16.6890   -16.2670 f          1 91Z      -0.167000
     27 C16        -21.4460    16.0000   -19.8390 ca         1 91Z       0.155000
     28 F3         -21.9640    15.1390   -20.7470 f          1 91Z      -0.172500
     29 O2         -18.6340    17.6440   -23.9880 o          1 91Z      -0.613100
     30 C18        -18.8590    19.6880   -30.1080 c3         1 91Z       0.071300
     31 O3         -20.0640    18.9210   -30.3660 oh         1 91Z      -0.658000
     32 C19        -18.9410    21.1210   -30.7230 c          1 91Z       0.613100
     33 N4         -19.9490    21.9130   -30.2880 nt         1 91Z      -0.591000
     34 O4         -18.1590    21.5390   -31.5630 o          1 91Z      -0.600100
     35 C23        -17.0450    21.4960   -24.5490 c5         1 91Z       0.100000
     36 N5         -15.7370    21.7240   -25.1590 ns         1 91Z      -0.513900
     37 O5         -14.5950    21.3270   -27.0900 o          1 91Z      -0.557000
     38 H1         -17.8970    17.7040   -28.2380 hn         1 91Z       0.316500
     39 H2         -21.3710    14.0740   -27.3230 hc         1 91Z       0.104700
     40 H3         -17.9590    14.3050   -25.3970 hc         1 91Z       0.042867
     41 H4         -18.0720    12.6350   -25.9360 hc         1 91Z       0.042867
     42 H5         -17.0120    13.7720   -26.7790 hc         1 91Z       0.042867
     43 H6         -19.1650    12.0100   -28.1390 hc         1 91Z       0.042867
     44 H7         -19.8560    13.2570   -29.1850 hc         1 91Z       0.042867
     45 H8         -18.1020    13.1490   -28.9880 hc         1 91Z       0.042867
     46 H9         -21.6830    15.1400   -25.0870 h1         1 91Z       0.060700
     47 H10        -20.2950    14.1360   -24.6400 h1         1 91Z       0.060700
     48 H11        -21.3410    16.3960   -22.9800 h1         1 91Z       0.067700
     49 H12        -20.0440    15.2500   -22.5850 h1         1 91Z       0.067700
     50 H14        -22.6660    15.1740   -18.2540 ha         1 91Z       0.153500
     51 H15        -19.3690    20.3170   -28.1090 h1         1 91Z       0.091700
     52 H16        -16.4220    19.8520   -28.7430 hc         1 91Z       0.072700
     53 H17        -17.2170    21.4070   -28.6080 hc         1 91Z       0.072700
     54 H18        -16.8190    19.4070   -26.2980 hc         1 91Z       0.082700
     55 H19        -18.2030    22.1520   -26.2950 hc         1 91Z       0.062700
     56 H20        -18.8110    20.6500   -25.5860 hc         1 91Z       0.062700
     57 H21        -18.0450    16.5150   -26.4020 h1         1 91Z       0.085700
     58 H22        -19.8340    15.7030   -28.5490 hc         1 91Z       0.099700
     59 H23        -19.2350    17.8380   -21.6420 hn         1 91Z       0.497000
     60 H24        -18.0070    19.1940   -30.5950 h1         1 91Z       0.063700
     61 H25        -20.0460    18.1590   -29.7460 ho         1 91Z       0.456000
     62 H26        -20.0510    22.8400   -30.6720 hn         1 91Z       0.322500
     63 H27        -20.6300    21.5450   -29.6400 hn         1 91Z       0.322500
     64 H28        -17.4140    22.3650   -23.9880 h1         1 91Z       0.047700
     65 H29        -17.0260    20.6290   -23.8750 h1         1 91Z       0.047700
     66 H30        -15.0000    22.3150   -24.7920 hn         1 91Z       0.326500
     67 H13        -20.0610    18.4020   -17.0990 ha         1 91Z       0.153500
@<TRIPOS>BOND
     1     1     7 1   
     2     1    18 1   
     3     1    20 1   
     4     2    11 1   
     5     2    17 1   
     6     2    38 1   
     7     3     4 1   
     8     3     7 1   
     9     3    19 1   
    10     3    39 1   
    11     4     5 1   
    12     4     6 1   
    13     4    19 1   
    14     5    40 1   
    15     5    41 1   
    16     5    42 1   
    17     6    43 1   
    18     6    44 1   
    19     6    45 1   
    20     7    46 1   
    21     7    47 1   
    22     8    20 1   
    23     8    21 1   
    24     8    48 1   
    25     8    49 1   
    26     9    23 ar  
    27     9    25 ar  
    28     9    67 1   
    29    10    25 ar  
    30    10    27 ar  
    31    10    50 1   
    32    11    12 1   
    33    11    30 1   
    34    11    51 1   
    35    12    13 1   
    36    12    52 1   
    37    12    53 1   
    38    13    14 1   
    39    13    15 1   
    40    13    54 1   
    41    14    35 1   
    42    14    55 1   
    43    14    56 1   
    44    15    36 1   
    45    15    37 2   
    46    16    17 2   
    47    17    18 1   
    48    18    19 1   
    49    18    57 1   
    50    19    58 1   
    51    20    29 2   
    52    21    22 1   
    53    21    59 1   
    54    22    23 ar  
    55    22    27 ar  
    56    23    24 1   
    57    25    26 1   
    58    27    28 1   
    59    30    31 1   
    60    30    32 1   
    61    30    60 1   
    62    31    61 1   
    63    32    33 1   
    64    32    34 2   
    65    33    62 1   
    66    33    63 1   
    67    35    36 1   
    68    35    64 1   
    69    35    65 1   
    70    36    66 1   
@<TRIPOS>SUBSTRUCTURE
     1 91Z         1 TEMP              0 ****  ****    0 ROOT
