@<TRIPOS>MOLECULE
920
   58    63     1     0     0
SMALL
No Charge or Current Charge


@<TRIPOS>ATOM
      1 F31         -4.8030    -2.8720     0.8020 f          1 920      -0.183000
      2 C6          -3.5120    -2.8810     0.4050 ca         1 920       0.197000
      3 C1          -2.9130    -4.1020     0.0240 ca         1 920      -0.224000
      4 C5          -2.7850    -1.6760     0.3900 ca         1 920      -0.170000
      5 C4          -1.4450    -1.7090    -0.0350 cp         1 920       0.031000
      6 C9          -0.4210    -0.6740    -0.1400 cp         1 920      -0.270000
      7 C10         -0.4380     0.7170     0.0640 ca         1 920       0.464900
      8 N22         -1.5990     1.4590     0.3280 nh         1 920      -0.758300
      9 C26         -2.6430     1.6750    -0.7240 c5         1 920       0.219800
     10 C25         -3.5560     2.8010    -0.1970 cy         1 920      -0.074700
     11 C28         -3.7120     4.2060    -0.8730 cy         1 920       0.156500
     12 N29         -3.6920     4.2760    -2.3320 n8         1 920      -0.983200
     13 C27         -2.4040     4.5990    -0.1280 cy         1 920      -0.122400
     14 C24         -2.7740     3.5060     0.9450 cy         1 920      -0.084000
     15 C30         -3.5750     4.0050     2.1700 c3         1 920      -0.070100
     16 C23         -1.6710     2.5160     1.3910 c5         1 920       0.223800
     17 N11          0.6990     1.4280    -0.0600 nb         1 920      -0.303000
     18 C12          1.8300     0.7630    -0.3880 ca         1 920       0.410300
     19 N13          1.9200    -0.5670    -0.6370 nb         1 920      -0.307000
     20 C8           0.7860    -1.2620    -0.5040 ca         1 920       0.222500
     21 N7           0.4860    -2.6190    -0.6670 na         1 920      -0.317300
     22 C3          -0.8610    -2.9230    -0.3810 ca         1 920      -0.105200
     23 C2          -1.5610    -4.1420    -0.3700 ca         1 920       0.334000
     24 N32         -0.9340    -5.3410    -0.7270 nu         1 920      -0.944200
     25 C33         -1.5310    -6.6900    -0.7470 c3         1 920       0.193100
     26 O14          2.9670     1.5290    -0.5230 os         1 920      -0.331400
     27 C15          4.2200     1.0960    -0.1350 ca         1 920       0.006100
     28 C20          5.3630     1.4980    -0.8500 ca         1 920       0.119400
     29 N19          6.6010     1.1050    -0.4830 nb         1 920      -0.176000
     30 C18          6.6880     0.3150     0.6110 ca         1 920       0.136300
     31 C21          8.0790    -0.1370     1.0220 c3         1 920      -0.133400
     32 N17          5.6570    -0.1170     1.3700 nb         1 920      -0.176000
     33 C16          4.4210     0.2780     0.9990 ca         1 920       0.119400
     34 H1          -3.5060    -5.0100     0.0530 ha         1 920       0.134000
     35 H2          -3.2500    -0.7520     0.7170 ha         1 920       0.141000
     36 H3          -2.1610     1.9570    -1.6700 h1         1 920       0.057700
     37 H4          -3.2050     0.7550    -0.9310 h1         1 920       0.057700
     38 H5          -4.5140     2.3790     0.1230 hc         1 920       0.083700
     39 H6          -4.5860     4.7410    -0.4780 h1         1 920       0.067700
     40 H7          -3.6950     5.2580    -2.6320 hn         1 920       0.398500
     41 H8          -2.7940     3.9270    -2.6830 hn         1 920       0.398500
     42 H10         -1.4810     4.3920    -0.6820 hc         1 920       0.054700
     43 H11         -2.3600     5.6310     0.2360 hc         1 920       0.054700
     44 H12         -4.0100     3.1660     2.7270 hc         1 920       0.040033
     45 H13         -2.9290     4.5650     2.8570 hc         1 920       0.040033
     46 H14         -4.3980     4.6670     1.8780 hc         1 920       0.040033
     47 H15         -1.9040     2.0420     2.3550 h1         1 920       0.065200
     48 H16         -0.7080     3.0260     1.5250 h1         1 920       0.065200
     49 H17          1.1810    -3.3000    -0.9500 hn         1 920       0.363000
     50 H18          0.0440    -5.2660    -1.0060 hn         1 920       0.463000
     51 H19         -1.8870    -6.9690     0.2540 h1         1 920       0.040033
     52 H20         -2.3810    -6.7250    -1.4420 h1         1 920       0.040033
     53 H21         -0.7890    -7.4330    -1.0700 h1         1 920       0.040033
     54 H22          5.2890     2.1380    -1.7280 h4         1 920       0.036600
     55 H23          8.8420     0.5950     0.7300 hc         1 920       0.060367
     56 H24          8.1520    -0.2720     2.1080 hc         1 920       0.060367
     57 H25          8.3330    -1.0920     0.5480 hc         1 920       0.060367
     58 H26          3.5930    -0.0590     1.6190 h4         1 920       0.036600
@<TRIPOS>BOND
     1     1     2 1   
     2     2     3 ar  
     3     2     4 ar  
     4     3    23 ar  
     5     3    34 1   
     6     4     5 ar  
     7     4    35 1   
     8     5     6 1   
     9     5    22 ar  
    10     6     7 ar  
    11     6    20 ar  
    12     7     8 1   
    13     7    17 ar  
    14     8     9 1   
    15     8    16 1   
    16     9    10 1   
    17     9    36 1   
    18     9    37 1   
    19    10    11 1   
    20    10    14 1   
    21    10    38 1   
    22    11    12 1   
    23    11    13 1   
    24    11    39 1   
    25    12    40 1   
    26    12    41 1   
    27    13    14 1   
    28    13    42 1   
    29    13    43 1   
    30    14    15 1   
    31    14    16 1   
    32    15    44 1   
    33    15    45 1   
    34    15    46 1   
    35    16    47 1   
    36    16    48 1   
    37    17    18 ar  
    38    18    19 ar  
    39    18    26 1   
    40    19    20 ar  
    41    20    21 1   
    42    21    22 1   
    43    21    49 1   
    44    22    23 ar  
    45    23    24 1   
    46    24    25 1   
    47    24    50 1   
    48    25    51 1   
    49    25    52 1   
    50    25    53 1   
    51    26    27 1   
    52    27    28 ar  
    53    27    33 ar  
    54    28    29 ar  
    55    28    54 1   
    56    29    30 ar  
    57    30    31 1   
    58    30    32 ar  
    59    31    55 1   
    60    31    56 1   
    61    31    57 1   
    62    32    33 ar  
    63    33    58 1   
@<TRIPOS>SUBSTRUCTURE
     1 920         1 TEMP              0 ****  ****    0 ROOT
