@<TRIPOS>MOLECULE
920
   58    63     1     0     0
SMALL
abcg2


@<TRIPOS>ATOM
      1 F31         -4.7200    -2.9240     0.0590 f          1 920      -0.183000
      2 C6          -3.3900    -2.7850    -0.1100 ca         1 920       0.197000
      3 C1          -2.6880    -3.9050    -0.5430 ca         1 920      -0.224000
      4 C5          -2.8190    -1.5690     0.1720 ca         1 920      -0.170000
      5 C4          -1.4330    -1.4700    -0.0170 cp         1 920       0.031000
      6 C9          -0.4600    -0.4250     0.1800 cp         1 920      -0.270000
      7 C10         -0.4210     0.9480     0.5160 ca         1 920       0.464900
      8 N22         -1.5010     1.7550     0.5510 nh         1 920      -0.758300
      9 C26         -2.5570     1.7020    -0.4580 c5         1 920       0.219800
     10 C25         -3.6140     2.6460     0.0950 cy         1 920      -0.074700
     11 C28         -4.1330     3.7240    -0.8710 cy         1 920       0.156500
     12 N29         -4.3970     3.3580    -2.2390 n8         1 920      -0.983200
     13 C27         -2.9430     4.6200    -0.4520 cy         1 920      -0.122400
     14 C24         -2.7680     3.7310     0.8060 cy         1 920      -0.084000
     15 C30         -3.3820     4.3300     2.0560 c3         1 920      -0.070100
     16 C23         -1.3810     3.1260     1.0430 c5         1 920       0.223800
     17 N11          0.7590     1.5040     0.8190 nb         1 920      -0.303000
     18 C12          1.8510     0.7880     0.6550 ca         1 920       0.410300
     19 N13          1.9800    -0.4330     0.1980 nb         1 920      -0.307000
     20 C8           0.8010    -1.0150    -0.0140 ca         1 920       0.222500
     21 N7           0.6440    -2.2940    -0.4090 na         1 920      -0.317300
     22 C3          -0.7040    -2.6060    -0.4070 ca         1 920      -0.105200
     23 C2          -1.3020    -3.8440    -0.6920 ca         1 920       0.334000
     24 N32         -0.5560    -4.9070    -1.1250 nu         1 920      -0.944200
     25 C33         -1.1400    -6.2200    -1.2510 c3         1 920       0.193100
     26 O14          2.9730     1.4630     0.9970 os         1 920      -0.331400
     27 C15          4.1820     0.8510     0.8270 ca         1 920       0.006100
     28 C20          4.7920     0.7600    -0.4140 ca         1 920       0.119400
     29 N19          5.9910     0.2250    -0.5530 nb         1 920      -0.176000
     30 C18          6.6000    -0.2280     0.5430 ca         1 920       0.136300
     31 C21          7.9540    -0.8370     0.3660 c3         1 920      -0.133400
     32 N17          6.0890    -0.1750     1.7660 nb         1 920      -0.176000
     33 C16          4.8820     0.3590     1.9080 ca         1 920       0.119400
     34 H1          -3.2300    -4.8200    -0.7380 ha         1 920       0.134000
     35 H2          -3.4180    -0.7650     0.5730 ha         1 920       0.141000
     36 H3          -2.1490     2.0420    -1.4180 h1         1 920       0.057700
     37 H4          -2.9310     0.6980    -0.6260 h1         1 920       0.057700
     38 H5          -4.3530     2.1090     0.6940 hc         1 920       0.083700
     39 H6          -5.0580     4.1370    -0.4590 h1         1 920       0.067700
     40 H7          -4.8160     4.1390    -2.7270 hn         1 920       0.398500
     41 H8          -3.5320     3.1640    -2.7300 hn         1 920       0.398500
     42 H10         -2.1020     4.5320    -1.1440 hc         1 920       0.054700
     43 H11         -3.1430     5.6800    -0.2860 hc         1 920       0.054700
     44 H12         -3.4330     3.5940     2.8600 hc         1 920       0.040033
     45 H13         -2.7910     5.1770     2.4100 hc         1 920       0.040033
     46 H14         -4.3950     4.6920     1.8710 hc         1 920       0.040033
     47 H15         -1.1020     3.1140     2.0990 h1         1 920       0.065200
     48 H16         -0.6060     3.6820     0.5080 h1         1 920       0.065200
     49 H17          1.4120    -2.9130    -0.6110 hn         1 920       0.363000
     50 H18          0.4080    -4.9170    -0.8370 hn         1 920       0.463000
     51 H19         -1.5810    -6.5900    -0.3190 h1         1 920       0.040033
     52 H20         -1.9170    -6.2280    -2.0170 h1         1 920       0.040033
     53 H21         -0.3640    -6.9140    -1.5610 h1         1 920       0.040033
     54 H22          4.3010     1.1340    -1.3070 h4         1 920       0.036600
     55 H23          8.6230    -0.1450    -0.1440 hc         1 920       0.060367
     56 H24          8.3910    -1.1060     1.3250 hc         1 920       0.060367
     57 H25          7.8890    -1.7350    -0.2510 hc         1 920       0.060367
     58 H26          4.4670     0.4050     2.9100 h4         1 920       0.036600
@<TRIPOS>BOND
     1     1     2 1   
     2     2     3 ar  
     3     2     4 ar  
     4     3    23 ar  
     5     3    34 1   
     6     4     5 ar  
     7     4    35 1   
     8     5     6 1   
     9     5    22 ar  
    10     6     7 ar  
    11     6    20 ar  
    12     7     8 1   
    13     7    17 ar  
    14     8     9 1   
    15     8    16 1   
    16     9    10 1   
    17     9    36 1   
    18     9    37 1   
    19    10    11 1   
    20    10    14 1   
    21    10    38 1   
    22    11    12 1   
    23    11    13 1   
    24    11    39 1   
    25    12    40 1   
    26    12    41 1   
    27    13    14 1   
    28    13    42 1   
    29    13    43 1   
    30    14    15 1   
    31    14    16 1   
    32    15    44 1   
    33    15    45 1   
    34    15    46 1   
    35    16    47 1   
    36    16    48 1   
    37    17    18 ar  
    38    18    19 ar  
    39    18    26 1   
    40    19    20 ar  
    41    20    21 1   
    42    21    22 1   
    43    21    49 1   
    44    22    23 ar  
    45    23    24 1   
    46    24    25 1   
    47    24    50 1   
    48    25    51 1   
    49    25    52 1   
    50    25    53 1   
    51    26    27 1   
    52    27    28 ar  
    53    27    33 ar  
    54    28    29 ar  
    55    28    54 1   
    56    29    30 ar  
    57    30    31 1   
    58    30    32 ar  
    59    31    55 1   
    60    31    56 1   
    61    31    57 1   
    62    32    33 ar  
    63    33    58 1   
@<TRIPOS>SUBSTRUCTURE
     1 920         1 TEMP              0 ****  ****    0 ROOT
