@<TRIPOS>MOLECULE
921
   70    73     1     0     0
SMALL
bcc


@<TRIPOS>ATOM
      1 C5           2.0840    -0.5320    -0.4600 c6         1 921      -0.089400
      2 C6           3.3810    -1.2630    -0.1300 c6         1 921      -0.067400
      3 C7           4.5760    -0.3050    -0.1390 c6         1 921      -0.025400
      4 C10          3.0440     1.6020     0.4840 c6         1 921      -0.089400
      5 C13          8.1390    -1.5750    -0.3750 ca         1 921       0.399200
      6 C15          7.2750    -2.3540     1.5680 ca         1 921       0.399200
      7 C20         -1.5460     3.2150     0.9700 c3         1 921       0.147200
      8 C21         -2.2900     4.0430    -0.0290 c2         1 921      -0.194200
      9 C22         -3.2040     4.9850     0.2120 c2         1 921      -0.089400
     10 C24         -3.6830     5.3970     1.5720 c3         1 921      -0.061400
     11 C26         -3.9530     1.6810     1.4750 ca         1 921      -0.184000
     12 C28         -5.3560    -0.1740     0.8090 ca         1 921      -0.167000
     13 N2           0.6030     1.3410     0.1930 n          1 921      -0.479800
     14 C3           1.8540     0.6460     0.4870 c6         1 921       0.113700
     15 C9           4.3300     0.8580     0.8300 c6         1 921      -0.067400
     16 C11          5.8710    -1.0050     0.1670 ca         1 921      -0.034300
     17 C12          6.9550    -0.9290    -0.7000 ca         1 921      -0.245800
     18 N14          8.3100    -2.2810     0.7360 nb         1 921      -0.664000
     19 C16          6.0540    -1.7440     1.3340 ca         1 921      -0.245800
     20 O18         -0.5570    -0.0070     1.5970 o          1 921      -0.603100
     21 N19         -1.6400     1.7860     0.6660 n          1 921      -0.416000
     22 C23         -3.8490     5.7340    -0.9170 c3         1 921      -0.061400
     23 C25         -2.8930     1.1590     0.7380 ca         1 921       0.108600
     24 C27         -5.1730     1.0180     1.4900 ca         1 921      -0.087000
     25 C29         -4.2940    -0.6840     0.0720 ca         1 921       0.144100
     26 O30         -4.5190    -1.8340    -0.6320 os         1 921      -0.256200
     27 C31         -3.5110    -2.7410    -0.8110 ca         1 921       0.116100
     28 C32         -2.6090    -3.0630     0.1980 ca         1 921      -0.156500
     29 C33         -1.6430    -4.0300    -0.0400 ca         1 921      -0.108500
     30 C34         -1.5750    -4.6800    -1.2660 ca         1 921      -0.150000
     31 C35         -2.4870    -4.3560    -2.2610 ca         1 921      -0.108500
     32 C36         -3.4520    -3.3830    -2.0410 ca         1 921      -0.156500
     33 C37         -3.0860    -0.0130     0.0050 ca         1 921      -0.203000
     34 H1           2.1270    -0.1770    -1.4940 hc         1 921       0.048950
     35 H2           1.2400    -1.2220    -0.3930 hc         1 921       0.048950
     36 H3           3.2940    -1.7350     0.8550 hc         1 921       0.047950
     37 H4           3.5430    -2.0680    -0.8500 hc         1 921       0.047950
     38 H5           4.6570     0.1170    -1.1480 hc         1 921       0.053700
     39 H6           3.1630     2.0720    -0.4970 hc         1 921       0.048950
     40 H7           2.8740     2.4050     1.2060 hc         1 921       0.048950
     41 H8           8.9870    -1.5170    -1.0480 h4         1 921       0.018100
     42 H9           7.4240    -2.9310     2.4750 h4         1 921       0.018100
     43 H10         -0.4900     3.4860     0.9630 h1         1 921       0.049700
     44 H11         -1.8800     3.4060     1.9930 h1         1 921       0.049700
     45 H12         -2.0300     3.8400    -1.0650 ha         1 921       0.125000
     46 H13         -3.5020     6.4630     1.7300 hc         1 921       0.042367
     47 H14         -4.7630     5.2520     1.6520 hc         1 921       0.042367
     48 H15         -3.2110     4.8610     2.3930 hc         1 921       0.042367
     49 H16         -3.8430     2.5880     2.0500 ha         1 921       0.135000
     50 H17         -6.3030    -0.6970     0.8400 ha         1 921       0.147000
     51 H18          0.9120     3.1980    -0.7990 h1         1 921       0.041700
     52 H19          1.2030     1.7510    -1.7640 h1         1 921       0.041700
     53 H20         -0.4400     2.2270    -1.3940 h1         1 921       0.041700
     54 H21          1.7630     0.2460     1.4990 h1         1 921       0.080700
     55 H22          4.2730     0.4760     1.8540 hc         1 921       0.047950
     56 H23          5.1750     1.5500     0.8000 hc         1 921       0.047950
     57 H24          6.8870    -0.3690    -1.6250 ha         1 921       0.139500
     58 H25          5.2620    -1.8510     2.0650 ha         1 921       0.139500
     59 H26         -4.9350     5.6080    -0.8930 hc         1 921       0.042367
     60 H27         -3.6600     6.8070    -0.8330 hc         1 921       0.042367
     61 H28         -3.4910     5.4030    -1.8910 hc         1 921       0.042367
     62 H29         -5.9900     1.4310     2.0670 ha         1 921       0.131000
     63 H30         -2.6480    -2.5640     1.1570 ha         1 921       0.149500
     64 H31         -0.9420    -4.2790     0.7460 ha         1 921       0.132500
     65 H32         -0.8180    -5.4330    -1.4410 ha         1 921       0.131000
     66 H33         -2.4450    -4.8550    -3.2200 ha         1 921       0.132500
     67 H34         -4.1600    -3.1240    -2.8180 ha         1 921       0.149500
     68 H35         -2.2850    -0.3990    -0.6130 ha         1 921       0.149000
     69 C17         -0.5120     0.9680     0.8650 c          1 921       0.791100
     70 C1           0.5670     2.1800    -0.9900 c3         1 921       0.090300
@<TRIPOS>BOND
     1     1     2 1   
     2     1    14 1   
     3     1    34 1   
     4     1    35 1   
     5     2     3 1   
     6     2    36 1   
     7     2    37 1   
     8     3    15 1   
     9     3    16 1   
    10     3    38 1   
    11     4    14 1   
    12     4    15 1   
    13     4    39 1   
    14     4    40 1   
    15     5    17 ar  
    16     5    18 ar  
    17     5    41 1   
    18     6    18 ar  
    19     6    19 ar  
    20     6    42 1   
    21     7     8 1   
    22     7    21 1   
    23     7    43 1   
    24     7    44 1   
    25     8     9 2   
    26     8    45 1   
    27     9    10 1   
    28     9    22 1   
    29    10    46 1   
    30    10    47 1   
    31    10    48 1   
    32    11    23 ar  
    33    11    24 ar  
    34    11    49 1   
    35    12    24 ar  
    36    12    25 ar  
    37    12    50 1   
    38    13    14 1   
    39    13    69 1   
    40    13    70 1   
    41    14    54 1   
    42    15    55 1   
    43    15    56 1   
    44    16    17 ar  
    45    16    19 ar  
    46    17    57 1   
    47    19    58 1   
    48    20    69 2   
    49    21    23 1   
    50    21    69 1   
    51    22    59 1   
    52    22    60 1   
    53    22    61 1   
    54    23    33 ar  
    55    24    62 1   
    56    25    26 1   
    57    25    33 ar  
    58    26    27 1   
    59    27    28 ar  
    60    27    32 ar  
    61    28    29 ar  
    62    28    63 1   
    63    29    30 ar  
    64    29    64 1   
    65    30    31 ar  
    66    30    65 1   
    67    31    32 ar  
    68    31    66 1   
    69    32    67 1   
    70    33    68 1   
    71    51    70 1   
    72    52    70 1   
    73    53    70 1   
@<TRIPOS>SUBSTRUCTURE
     1 921         1 TEMP              0 ****  ****    0 ROOT
