@<TRIPOS>MOLECULE
921
   70    73     1     0     0
SMALL
No Charge or Current Charge


@<TRIPOS>ATOM
      1 C5           2.0330    -0.2800    -0.4770 c6         1 921      -0.089400
      2 C6           3.3910    -0.9680    -0.1890 c6         1 921      -0.067400
      3 C7           4.5260     0.0740     0.0120 c6         1 921      -0.025400
      4 C10          2.7900     1.7680     0.8360 c6         1 921      -0.089400
      5 C13          8.1850    -1.0630    -0.3180 ca         1 921       0.333900
      6 C15          7.3430    -2.0030     1.6230 ca         1 921       0.333900
      7 C20         -2.0800     2.9080     1.2610 c3         1 921       0.147200
      8 C21         -2.6430     3.7300     0.1160 c2         1 921      -0.244200
      9 C22         -2.4340     5.0380    -0.1210 c2         1 921      -0.089400
     10 C24         -1.5870     5.9590     0.7420 c3         1 921      -0.061400
     11 C26         -4.3330     0.9990     1.9610 ca         1 921      -0.166000
     12 C28         -5.6600    -0.8760     1.1580 ca         1 921      -0.149000
     13 N2           0.3240     1.3420     0.4200 n          1 921      -0.412800
     14 C3           1.6580     0.7160     0.6550 c6         1 921       0.113700
     15 C9           4.1450     1.0790     1.1330 c6         1 921      -0.067400
     16 C11          5.8770    -0.6010     0.2850 ca         1 921      -0.034300
     17 C12          6.9600    -0.4320    -0.5970 ca         1 921      -0.162500
     18 N14          8.3830    -1.8390     0.7730 nb         1 921      -0.664000
     19 C16          6.0860    -1.4090     1.4190 ca         1 921      -0.162500
     20 O18         -0.7900    -0.3950     1.4090 o          1 921      -0.603100
     21 N19         -2.0840     1.4500     0.9800 n          1 921      -0.256400
     22 C23         -3.0380     5.7560    -1.3140 c3         1 921      -0.061400
     23 C25         -3.3530     0.7580     0.9720 ca         1 921       0.016000
     24 C27         -5.4930     0.2080     2.0330 ca         1 921      -0.069000
     25 C29         -4.6550    -1.1850     0.2320 ca         1 921       0.144100
     26 O30         -4.8240    -2.2720    -0.5970 os         1 921      -0.256200
     27 C31         -3.7820    -3.0780    -1.0020 ca         1 921       0.116100
     28 C32         -2.7340    -3.4160    -0.1210 ca         1 921      -0.138500
     29 C33         -1.6880    -4.2470    -0.5590 ca         1 921      -0.090500
     30 C34         -1.6930    -4.7490    -1.8720 ca         1 921      -0.132000
     31 C35         -2.7450    -4.4260    -2.7460 ca         1 921      -0.090500
     32 C36         -3.7910    -3.5930    -2.3090 ca         1 921      -0.138500
     33 C37         -3.5050    -0.3780     0.1500 ca         1 921      -0.185000
     34 H1           2.0850     0.2380    -1.4440 hc         1 921       0.048950
     35 H2           1.2500    -1.0440    -0.5760 hc         1 921       0.048950
     36 H3           3.2950    -1.6010     0.7040 hc         1 921       0.047950
     37 H4           3.6470    -1.6410    -1.0190 hc         1 921       0.047950
     38 H5           4.6150     0.6450    -0.9240 hc         1 921       0.053700
     39 H6           2.8960     2.3890    -0.0630 hc         1 921       0.048950
     40 H7           2.5340     2.4480     1.6590 hc         1 921       0.048950
     41 H8           9.0340    -0.9440    -0.9890 h4         1 921       0.018100
     42 H9           7.5230    -2.6310     2.4940 h4         1 921       0.018100
     43 H10         -1.0610     3.2320     1.5010 h1         1 921       0.049700
     44 H11         -2.6630     3.1110     2.1650 h1         1 921       0.049700
     45 H12         -3.2740     3.1540    -0.5620 ha         1 921       0.175000
     46 H13         -0.7330     6.3510     0.1760 hc         1 921       0.042367
     47 H14         -2.1740     6.8160     1.0930 hc         1 921       0.042367
     48 H15         -1.1870     5.4600     1.6310 hc         1 921       0.042367
     49 H16         -4.2140     1.7990     2.6850 ha         1 921       0.117000
     50 H17         -6.5530    -1.4930     1.2160 ha         1 921       0.129000
     51 H18          0.3250     3.3820    -0.1980 h1         1 921       0.041700
     52 H19          1.0180     2.2520    -1.3850 h1         1 921       0.041700
     53 H20         -0.7360     2.3040    -1.1630 h1         1 921       0.041700
     54 H21          1.6080     0.1470     1.5950 h1         1 921       0.080700
     55 H22          4.0890     0.5640     2.1020 hc         1 921       0.047950
     56 H23          4.9320     1.8400     1.2320 hc         1 921       0.047950
     57 H24          6.8650     0.1790    -1.4900 ha         1 921       0.121500
     58 H25          5.2920    -1.5800     2.1400 ha         1 921       0.121500
     59 H26         -3.6880     6.5780    -0.9930 hc         1 921       0.042367
     60 H27         -2.2570     6.1770    -1.9580 hc         1 921       0.042367
     61 H28         -3.6430     5.0810    -1.9310 hc         1 921       0.042367
     62 H29         -6.2540     0.4250     2.7810 ha         1 921       0.113000
     63 H30         -2.7280    -3.0360     0.8980 ha         1 921       0.131500
     64 H31         -0.8760    -4.5020     0.1190 ha         1 921       0.114500
     65 H32         -0.8840    -5.3930    -2.2100 ha         1 921       0.113000
     66 H33         -2.7510    -4.8200    -3.7610 ha         1 921       0.114500
     67 H34         -4.6060    -3.3420    -2.9830 ha         1 921       0.131500
     68 H35         -2.7330    -0.6210    -0.5740 ha         1 921       0.131000
     69 C17         -0.8490     0.7430     0.9590 c          1 921       0.657100
     70 C1           0.2250     2.3830    -0.6390 c3         1 921       0.090300
@<TRIPOS>BOND
     1     1     2 1   
     2     1    14 1   
     3     1    34 1   
     4     1    35 1   
     5     2     3 1   
     6     2    36 1   
     7     2    37 1   
     8     3    15 1   
     9     3    16 1   
    10     3    38 1   
    11     4    14 1   
    12     4    15 1   
    13     4    39 1   
    14     4    40 1   
    15     5    17 ar  
    16     5    18 ar  
    17     5    41 1   
    18     6    18 ar  
    19     6    19 ar  
    20     6    42 1   
    21     7     8 1   
    22     7    21 1   
    23     7    43 1   
    24     7    44 1   
    25     8     9 2   
    26     8    45 1   
    27     9    10 1   
    28     9    22 1   
    29    10    46 1   
    30    10    47 1   
    31    10    48 1   
    32    11    23 ar  
    33    11    24 ar  
    34    11    49 1   
    35    12    24 ar  
    36    12    25 ar  
    37    12    50 1   
    38    13    14 1   
    39    13    69 1   
    40    13    70 1   
    41    14    54 1   
    42    15    55 1   
    43    15    56 1   
    44    16    17 ar  
    45    16    19 ar  
    46    17    57 1   
    47    19    58 1   
    48    20    69 2   
    49    21    23 1   
    50    21    69 1   
    51    22    59 1   
    52    22    60 1   
    53    22    61 1   
    54    23    33 ar  
    55    24    62 1   
    56    25    26 1   
    57    25    33 ar  
    58    26    27 1   
    59    27    28 ar  
    60    27    32 ar  
    61    28    29 ar  
    62    28    63 1   
    63    29    30 ar  
    64    29    64 1   
    65    30    31 ar  
    66    30    65 1   
    67    31    32 ar  
    68    31    66 1   
    69    32    67 1   
    70    33    68 1   
    71    51    70 1   
    72    52    70 1   
    73    53    70 1   
@<TRIPOS>SUBSTRUCTURE
     1 921         1 TEMP              0 ****  ****    0 ROOT
