@<TRIPOS>MOLECULE
922
   58    59     1     0     0
SMALL
No Charge or Current Charge


@<TRIPOS>ATOM
      1 C37         39.3670    15.7700    66.0080 ca         1 922      -0.079000
      2 C38         40.6190    15.4840    66.5820 ca         1 922      -0.125000
      3 C39         40.8130    14.2830    67.2840 ca         1 922      -0.127000
      4 C40         39.7560    13.3670    67.4110 ca         1 922      -0.125000
      5 C41         38.5040    13.6510    66.8370 ca         1 922      -0.079000
      6 C36         38.3020    14.8560    66.1340 ca         1 922      -0.076300
      7 C33         36.9450    15.1670    65.5160 c3         1 922       0.227900
      8 O32         36.9300    14.6690    64.1690 os         1 922      -0.441100
      9 C30         35.7980    14.8620    63.4400 c          1 922       0.625100
     10 O31         34.7810    15.4130    63.8370 o          1 922      -0.619000
     11 N29         35.9740    14.3180    62.1980 ns         1 922      -0.456900
     12 C25         34.9610    14.2790    61.1000 c3         1 922      -0.212300
     13 C26         35.0370    15.5230    60.1520 c3         1 922      -0.040700
     14 C28         34.3750    16.7710    60.7830 c3         1 922      -0.080100
     15 C27         36.4680    15.8640    59.6630 c3         1 922      -0.080100
     16 P24         34.8480    12.6140    60.2280 p5         1 922       1.424400
     17 O34         33.6970    12.5780    59.2720 o          1 922      -0.834500
     18 O35         34.7670    11.5080    61.2330 o          1 922      -0.834500
     19 O23         36.2550    12.5950    59.4330 os         1 922      -0.617400
     20 C1          37.1760    11.4790    59.5810 c3         1 922       0.129600
     21 C2          37.9430    11.4530    60.9560 c          1 922       0.712000
     22 O14         38.4930    10.4080    61.2860 o          1 922      -0.726500
     23 O13         38.0140    12.4770    61.6270 o          1 922      -0.726500
     24 C3          38.1740    11.5400    58.4260 ca         1 922       0.013700
     25 C8          38.2660    10.4760    57.5050 ca         1 922      -0.132000
     26 C4          39.0080    12.6640    58.2640 ca         1 922      -0.089000
     27 C5          39.9200    12.7250    57.1960 ca         1 922      -0.115000
     28 C6          40.0030    11.6590    56.2850 ca         1 922      -0.197000
     29 C7          39.1840    10.5310    56.4410 ca         1 922       0.258000
     30 N9          39.2810     9.4930    55.5200 nu         1 922      -0.976200
     31 C10         39.4070     8.2010    55.6850 c2         1 922       0.786100
     32 N12         39.7450     7.7110    56.7670 n2         1 922      -0.892100
     33 N11         39.7460     7.7630    54.5080 nv         1 922      -1.046200
     34 H37         39.2250    16.7010    65.4640 ha         1 922       0.128000
     35 H38         41.4370    16.1940    66.4820 ha         1 922       0.100500
     36 H39         41.7810    14.0620    67.7280 ha         1 922       0.088000
     37 H40         39.9060    12.4350    67.9530 ha         1 922       0.100500
     38 H41         37.6910    12.9350    66.9380 ha         1 922       0.128000
     39 H331        36.1540    14.6950    66.1120 h1         1 922       0.038700
     40 H332        36.7780    16.2520    65.5300 h1         1 922       0.038700
     41 HN29        36.8510    13.8080    62.0710 hn         1 922       0.391500
     42 H25         33.9720    14.2890    61.5720 h1         1 922       0.064700
     43 H26         34.4420    15.2880    59.2600 hc         1 922       0.052700
     44 H281        34.9500    17.1280    61.6460 hc         1 922       0.021700
     45 H282        34.3190    17.5880    60.0540 hc         1 922       0.021700
     46 H283        33.3550    16.5460    61.1140 hc         1 922       0.021700
     47 H271        36.4430    16.7170    58.9740 hc         1 922       0.021700
     48 H272        37.1230    16.1310    60.5020 hc         1 922       0.021700
     49 H273        36.9210    15.0260    59.1260 hc         1 922       0.021700
     50 H1          36.6270    10.5310    59.5190 h1         1 922       0.067700
     51 H8          37.6160     9.6120    57.6100 ha         1 922       0.130000
     52 H4          38.9430    13.4930    58.9660 ha         1 922       0.143000
     53 H5          40.5570    13.5980    57.0760 ha         1 922       0.084000
     54 H6          40.7100    11.7130    55.4610 ha         1 922       0.076000
     55 HN9         39.7610     9.7440    54.6680 hn         1 922       0.461000
     56 HN12        39.6080     8.4750    57.4360 hn         1 922       0.433400
     57 H111        40.0620     6.8050    54.5730 hn         1 922       0.448500
     58 H112        39.0020     7.8920    53.8370 hn         1 922       0.448500
@<TRIPOS>BOND
     1     1     2 ar  
     2     1     6 ar  
     3     1    34 1   
     4     2     3 ar  
     5     2    35 1   
     6     3     4 ar  
     7     3    36 1   
     8     4     5 ar  
     9     4    37 1   
    10     5     6 ar  
    11     5    38 1   
    12     6     7 1   
    13     7     8 1   
    14     7    39 1   
    15     7    40 1   
    16     8     9 1   
    17     9    10 2   
    18     9    11 1   
    19    11    12 1   
    20    11    41 1   
    21    12    13 1   
    22    12    16 1   
    23    12    42 1   
    24    13    14 1   
    25    13    15 1   
    26    13    43 1   
    27    14    44 1   
    28    14    45 1   
    29    14    46 1   
    30    15    47 1   
    31    15    48 1   
    32    15    49 1   
    33    16    17 1   
    34    16    18 1   
    35    16    19 1   
    36    19    20 1   
    37    20    21 1   
    38    20    24 1   
    39    20    50 1   
    40    21    22 1   
    41    21    23 1   
    42    24    25 ar  
    43    24    26 ar  
    44    25    29 ar  
    45    25    51 1   
    46    26    27 ar  
    47    26    52 1   
    48    27    28 ar  
    49    27    53 1   
    50    28    29 ar  
    51    28    54 1   
    52    29    30 1   
    53    30    31 1   
    54    30    55 1   
    55    31    32 2   
    56    31    33 1   
    57    32    56 1   
    58    33    57 1   
    59    33    58 1   
@<TRIPOS>SUBSTRUCTURE
     1 922         1 TEMP              0 ****  ****    0 ROOT
