@<TRIPOS>MOLECULE
922
   58    59     1     0     0
SMALL
abcg2


@<TRIPOS>ATOM
      1 C37         39.0170    14.7320    66.5620 ca         1 922      -0.079000
      2 C38         40.3310    14.4740    66.9470 ca         1 922      -0.125000
      3 C39         41.0160    13.3950    66.4000 ca         1 922      -0.127000
      4 C40         40.3820    12.5720    65.4700 ca         1 922      -0.125000
      5 C41         39.0690    12.8280    65.0960 ca         1 922      -0.079000
      6 C36         38.3760    13.9120    65.6380 ca         1 922      -0.076300
      7 C33         36.9580    14.1850    65.2260 c3         1 922       0.227900
      8 O32         36.9630    14.4440    63.8070 os         1 922      -0.441100
      9 C30         35.7520    14.5700    63.2020 c          1 922       0.625100
     10 O31         34.6940    14.5610    63.8200 o          1 922      -0.619000
     11 N29         35.9080    14.7080    61.8770 ns         1 922      -0.456900
     12 C25         34.7900    14.7860    60.9510 c3         1 922      -0.212300
     13 C26         34.6680    16.1710    60.2820 c3         1 922      -0.040700
     14 C28         34.3400    17.2410    61.3250 c3         1 922      -0.080100
     15 C27         35.9050    16.5670    59.4750 c3         1 922      -0.080100
     16 P24         34.8310    13.3330    59.8060 p5         1 922       1.424400
     17 O34         33.9390    13.6200    58.6330 o          1 922      -0.834500
     18 O35         34.6140    12.0840    60.6140 o          1 922      -0.834500
     19 O23         36.3750    13.3660    59.2680 os         1 922      -0.617400
     20 C1          37.3260    12.3380    59.5300 c3         1 922       0.129600
     21 C2          38.3740    12.7560    60.6090 c          1 922       0.712000
     22 O14         39.0190    11.8110    61.1150 o          1 922      -0.726500
     23 O13         38.4990    13.9790    60.8660 o          1 922      -0.726500
     24 C3          38.0550    11.9960    58.2520 ca         1 922       0.013700
     25 C8          38.4450    10.6820    58.0090 ca         1 922      -0.132000
     26 C4          38.3740    12.9910    57.3280 ca         1 922      -0.089000
     27 C5          39.0820    12.6630    56.1770 ca         1 922      -0.115000
     28 C6          39.4990    11.3580    55.9490 ca         1 922      -0.197000
     29 C7          39.1840    10.3560    56.8700 ca         1 922       0.258000
     30 N9          39.5670     9.0320    56.5920 nu         1 922      -0.976200
     31 C10         40.1120     8.1330    57.4970 c2         1 922       0.786100
     32 N12         40.3870     8.3400    58.7350 n2         1 922      -0.892100
     33 N11         40.4020     6.9160    56.9130 nv         1 922      -1.046200
     34 H37         38.4870    15.5790    66.9820 ha         1 922       0.128000
     35 H38         40.8190    15.1190    67.6670 ha         1 922       0.100500
     36 H39         42.0390    13.1940    66.6940 ha         1 922       0.088000
     37 H40         40.9120    11.7310    65.0400 ha         1 922       0.100500
     38 H41         38.5800    12.1880    64.3710 ha         1 922       0.128000
     39 H331        36.3140    13.3260    65.4230 h1         1 922       0.038700
     40 H332        36.5550    15.0490    65.7550 h1         1 922       0.038700
     41 HN29        36.8470    14.5670    61.4960 hn         1 922       0.391500
     42 H25         33.8840    14.6290    61.5400 h1         1 922       0.064700
     43 H26         33.8240    16.0930    59.5930 hc         1 922       0.052700
     44 H281        35.1490    17.3320    62.0540 hc         1 922       0.021700
     45 H282        34.2070    18.2150    60.8490 hc         1 922       0.021700
     46 H283        33.4230    16.9990    61.8680 hc         1 922       0.021700
     47 H271        35.7550    17.5440    59.0120 hc         1 922       0.021700
     48 H272        36.7850    16.6370    60.1210 hc         1 922       0.021700
     49 H273        36.1230    15.8440    58.6910 hc         1 922       0.021700
     50 H1          36.8120    11.4560    59.9080 h1         1 922       0.067700
     51 H8          38.1540     9.9060    58.7040 ha         1 922       0.130000
     52 H4          38.0600    14.0090    57.5070 ha         1 922       0.143000
     53 H5          39.3240    13.4330    55.4540 ha         1 922       0.084000
     54 H6          40.0630    11.1070    55.0590 ha         1 922       0.076000
     55 HN9         39.7790     8.8420    55.6230 hn         1 922       0.461000
     56 HN12        40.2310     9.3100    58.9910 hn         1 922       0.433400
     57 H111        40.6330     6.1920    57.5750 hn         1 922       0.448500
     58 H112        39.7790     6.6090    56.1800 hn         1 922       0.448500
@<TRIPOS>BOND
     1     1     2 ar  
     2     1     6 ar  
     3     1    34 1   
     4     2     3 ar  
     5     2    35 1   
     6     3     4 ar  
     7     3    36 1   
     8     4     5 ar  
     9     4    37 1   
    10     5     6 ar  
    11     5    38 1   
    12     6     7 1   
    13     7     8 1   
    14     7    39 1   
    15     7    40 1   
    16     8     9 1   
    17     9    10 2   
    18     9    11 1   
    19    11    12 1   
    20    11    41 1   
    21    12    13 1   
    22    12    16 1   
    23    12    42 1   
    24    13    14 1   
    25    13    15 1   
    26    13    43 1   
    27    14    44 1   
    28    14    45 1   
    29    14    46 1   
    30    15    47 1   
    31    15    48 1   
    32    15    49 1   
    33    16    17 1   
    34    16    18 1   
    35    16    19 1   
    36    19    20 1   
    37    20    21 1   
    38    20    24 1   
    39    20    50 1   
    40    21    22 1   
    41    21    23 1   
    42    24    25 ar  
    43    24    26 ar  
    44    25    29 ar  
    45    25    51 1   
    46    26    27 ar  
    47    26    52 1   
    48    27    28 ar  
    49    27    53 1   
    50    28    29 ar  
    51    28    54 1   
    52    29    30 1   
    53    30    31 1   
    54    30    55 1   
    55    31    32 2   
    56    31    33 1   
    57    32    56 1   
    58    33    57 1   
    59    33    58 1   
@<TRIPOS>SUBSTRUCTURE
     1 922         1 TEMP              0 ****  ****    0 ROOT
