@<TRIPOS>MOLECULE
923
   62    66     1     0     0
SMALL
No Charge or Current Charge


@<TRIPOS>ATOM
      1 C1           3.6730    -0.2380     0.4290 ca         1 923      -0.015000
      2 C2           3.2570    -1.5760     0.2290 ca         1 923      -0.103800
      3 C3           4.2280    -2.5720    -0.0360 ca         1 923      -0.060000
      4 C4           5.5950    -2.2390    -0.1160 ca         1 923      -0.148000
      5 C5           5.9710    -0.9080     0.0890 ca         1 923       0.146100
      6 C6           5.0410     0.0670     0.3490 ca         1 923      -0.176300
      7 C7           5.6980     1.4020     0.4950 c5         1 923      -0.046100
      8 C8           7.1980     0.9060     0.5970 c5         1 923       0.131300
      9 O9           7.2560    -0.4510     0.0290 os         1 923      -0.339100
     10 C10          1.8190    -1.9720     0.3110 ce         1 923      -0.112200
     11 C11          0.6810    -1.2510     0.0080 cd         1 923       0.023100
     12 O12          0.7900     0.0370    -0.4590 os         1 923      -0.324200
     13 C13         -0.4960     0.4700    -0.6740 c          1 923       0.667300
     14 C14         -1.4200    -0.6130    -0.3320 cc         1 923      -0.203400
     15 C15         -0.6870    -1.6790     0.0950 cd         1 923       0.152100
     16 C16         -2.8850    -0.6130    -0.3860 ca         1 923      -0.057800
     17 C17         -3.6040     0.4980     0.1100 ca         1 923      -0.027000
     18 C18         -5.0060     0.4900     0.0380 ca         1 923      -0.181300
     19 C19         -5.6800    -0.5740    -0.5080 ca         1 923       0.143100
     20 C20         -5.0020    -1.6930    -1.0030 ca         1 923      -0.145000
     21 C21         -3.5930    -1.7060    -0.9460 ca         1 923      -0.052000
     22 C22         -5.9610     1.5300     0.5270 c5         1 923      -0.045100
     23 C23         -7.2720     0.9760    -0.1670 c5         1 923       0.133300
     24 O24         -7.0390    -0.4410    -0.4910 os         1 923      -0.317100
     25 C25         -8.6140     1.1460     0.6250 c3         1 923       0.187000
     26 C26         -9.8150     0.5430    -0.1440 c3         1 923      -0.103600
     27 O27         -8.5160     0.4520     1.8740 oh         1 923      -0.645000
     28 C28         -8.9020     2.6330     0.9460 c3         1 923      -0.103600
     29 C29          8.2890     1.8230    -0.0570 c3         1 923       0.185000
     30 O30          8.0180     1.9460    -1.4590 oh         1 923      -0.656000
     31 C31          8.2700     3.2490     0.5430 c3         1 923      -0.102600
     32 C32          9.7080     1.2210     0.0880 c3         1 923      -0.102600
     33 O33         -0.7900     1.5820    -1.0880 o          1 923      -0.468000
     34 O34         -1.1390    -2.8770     0.5340 oh         1 923      -0.489100
     35 H1           2.9570     0.5480     0.6530 ha         1 923       0.141000
     36 H3           3.9210    -3.6050    -0.1900 ha         1 923       0.109000
     37 H4           6.3440    -2.9980    -0.3270 ha         1 923       0.132000
     38 H7           5.5190     2.0430    -0.3750 hc         1 923       0.075200
     39 H7A          5.3810     1.9490     1.3910 hc         1 923       0.075200
     40 H8           7.4500     0.8070     1.6620 h1         1 923       0.066700
     41 H10          1.6580    -2.9990     0.6350 ha         1 923       0.172000
     42 H17         -3.0840     1.3460     0.5500 ha         1 923       0.124000
     43 H20         -5.5510    -2.5280    -1.4280 ha         1 923       0.131000
     44 H21         -3.0530    -2.5610    -1.3430 ha         1 923       0.118000
     45 H22         -6.0290     1.5410     1.6200 hc         1 923       0.059200
     46 H22A        -5.7110     2.5420     0.1900 hc         1 923       0.059200
     47 H23         -7.3910     1.4960    -1.1280 h1         1 923       0.061700
     48 H26         -9.6780    -0.5300    -0.3220 hc         1 923       0.046367
     49 H26A       -10.7470     0.6730     0.4200 hc         1 923       0.046367
     50 H26B        -9.9380     1.0350    -1.1170 hc         1 923       0.046367
     51 HO27        -8.0930    -0.4110     1.6720 ho         1 923       0.440000
     52 H28         -8.9770     3.2210     0.0230 hc         1 923       0.046367
     53 H28A        -9.8460     2.7400     1.4950 hc         1 923       0.046367
     54 H28B        -8.1060     3.0680     1.5630 hc         1 923       0.046367
     55 HO30         7.7870     1.0430    -1.7690 ho         1 923       0.453000
     56 H31          8.4590     3.2180     1.6230 hc         1 923       0.046533
     57 H31A         9.0410     3.8790     0.0820 hc         1 923       0.046533
     58 H31B         7.3020     3.7370     0.3820 hc         1 923       0.046533
     59 H32          9.7770     0.2380    -0.3940 hc         1 923       0.046533
     60 H32A        10.4600     1.8730    -0.3730 hc         1 923       0.046533
     61 H32B         9.9690     1.0980     1.1460 hc         1 923       0.046533
     62 HO34        -0.3650    -3.4120     0.8040 ho         1 923       0.479000
@<TRIPOS>BOND
     1     1     2 ar  
     2     1     6 ar  
     3     1    35 1   
     4     2     3 ar  
     5     2    10 1   
     6     3     4 ar  
     7     3    36 1   
     8     4     5 ar  
     9     4    37 1   
    10     5     6 ar  
    11     5     9 1   
    12     6     7 1   
    13     7     8 1   
    14     7    38 1   
    15     7    39 1   
    16     8     9 1   
    17     8    29 1   
    18     8    40 1   
    19    10    11 2   
    20    10    41 1   
    21    11    12 1   
    22    11    15 1   
    23    12    13 1   
    24    13    14 1   
    25    13    33 2   
    26    14    15 2   
    27    14    16 1   
    28    15    34 1   
    29    16    17 ar  
    30    16    21 ar  
    31    17    18 ar  
    32    17    42 1   
    33    18    19 ar  
    34    18    22 1   
    35    19    20 ar  
    36    19    24 1   
    37    20    21 ar  
    38    20    43 1   
    39    21    44 1   
    40    22    23 1   
    41    22    45 1   
    42    22    46 1   
    43    23    24 1   
    44    23    25 1   
    45    23    47 1   
    46    25    26 1   
    47    25    27 1   
    48    25    28 1   
    49    26    48 1   
    50    26    49 1   
    51    26    50 1   
    52    27    51 1   
    53    28    52 1   
    54    28    53 1   
    55    28    54 1   
    56    29    30 1   
    57    29    31 1   
    58    29    32 1   
    59    30    55 1   
    60    31    56 1   
    61    31    57 1   
    62    31    58 1   
    63    32    59 1   
    64    32    60 1   
    65    32    61 1   
    66    34    62 1   
@<TRIPOS>SUBSTRUCTURE
     1 923         1 TEMP              0 ****  ****    0 ROOT
