@<TRIPOS>MOLECULE
923
   62    66     1     0     0
SMALL
abcg2


@<TRIPOS>ATOM
      1 C1           3.6710    -0.0930     0.2520 ca         1 923      -0.015000
      2 C2           3.2380    -1.4330     0.2950 ca         1 923      -0.103800
      3 C3           4.1990    -2.4430     0.4430 ca         1 923      -0.060000
      4 C4           5.5540    -2.1710     0.5570 ca         1 923      -0.148000
      5 C5           5.9380    -0.8420     0.5140 ca         1 923       0.146100
      6 C6           5.0130     0.1850     0.3630 ca         1 923      -0.176300
      7 C7           5.7660     1.4790     0.3030 c5         1 923      -0.046100
      8 C8           7.1920     1.0420     0.6880 c5         1 923       0.131300
      9 O9           7.2000    -0.4040     0.6170 os         1 923      -0.339100
     10 C10          1.8530    -1.8520     0.1890 ce         1 923      -0.112200
     11 C11          0.7340    -1.1270     0.0570 cd         1 923       0.023100
     12 O12          0.7020     0.2360     0.0010 os         1 923      -0.324200
     13 C13         -0.5950     0.6520    -0.1580 c          1 923       0.667300
     14 C14         -1.4530    -0.5170    -0.1990 cc         1 923      -0.203400
     15 C15         -0.6360    -1.5930    -0.0610 cd         1 923       0.152100
     16 C16         -2.9030    -0.4630    -0.3730 ca         1 923      -0.057800
     17 C17         -3.6620     0.5070     0.2970 ca         1 923      -0.027000
     18 C18         -5.0250     0.5580     0.1010 ca         1 923      -0.181300
     19 C19         -5.6440    -0.3450    -0.7520 ca         1 923       0.143100
     20 C20         -4.9290    -1.3220    -1.4200 ca         1 923      -0.145000
     21 C21         -3.5540    -1.3660    -1.2180 ca         1 923      -0.052000
     22 C22         -6.0880     1.4270     0.7000 c5         1 923      -0.045100
     23 C23         -7.3110     1.0680    -0.1670 c5         1 923       0.133300
     24 O24         -6.9700    -0.1530    -0.8540 os         1 923      -0.317100
     25 C25         -8.6340     0.8750     0.5830 c3         1 923       0.187000
     26 C26         -9.7330     0.4610    -0.3890 c3         1 923      -0.103600
     27 O27         -8.5210    -0.1670     1.5320 oh         1 923      -0.645000
     28 C28         -9.0090     2.1960     1.2530 c3         1 923      -0.103600
     29 C29          8.3090     1.5830    -0.2100 c3         1 923       0.185000
     30 O30          8.0570     1.2430    -1.5600 oh         1 923      -0.656000
     31 C31          8.3090     3.1050    -0.1300 c3         1 923      -0.102600
     32 C32          9.6670     1.0440     0.2400 c3         1 923      -0.102600
     33 O33         -0.8440     1.8250    -0.2440 o          1 923      -0.468000
     34 O34         -1.0280    -2.8520    -0.0370 oh         1 923      -0.489100
     35 H1           2.9700     0.7200     0.1340 ha         1 923       0.141000
     36 H3           3.8740    -3.4760     0.4750 ha         1 923       0.109000
     37 H4           6.2760    -2.9680     0.6740 ha         1 923       0.132000
     38 H7           5.7280     1.9010    -0.7040 hc         1 923       0.075200
     39 H7A          5.3800     2.2320     0.9890 hc         1 923       0.075200
     40 H8           7.4050     1.3150     1.7280 h1         1 923       0.066700
     41 H10          1.7130    -2.9280     0.2170 ha         1 923       0.172000
     42 H17         -3.1860     1.2050     0.9740 ha         1 923       0.124000
     43 H20         -5.4130    -2.0240    -2.0860 ha         1 923       0.131000
     44 H21         -2.9780    -2.1090    -1.7530 ha         1 923       0.118000
     45 H22         -6.2260     1.1860     1.7590 hc         1 923       0.059200
     46 H22A        -5.8620     2.4920     0.6450 hc         1 923       0.059200
     47 H23         -7.4550     1.8420    -0.9300 h1         1 923       0.061700
     48 H26         -9.5320    -0.5090    -0.8420 hc         1 923       0.046367
     49 H26A       -10.6920     0.4010     0.1290 hc         1 923       0.046367
     50 H26B        -9.8330     1.1940    -1.1900 hc         1 923       0.046367
     51 HO27        -8.0290     0.1500     2.2960 ho         1 923       0.440000
     52 H28         -9.0850     3.0020     0.5230 hc         1 923       0.046367
     53 H28A        -9.9760     2.1060     1.7510 hc         1 923       0.046367
     54 H28B        -8.2750     2.4990     2.0030 hc         1 923       0.046367
     55 HO30         8.1500     0.2890    -1.6590 ho         1 923       0.453000
     56 H31          8.4890     3.4370     0.8930 hc         1 923       0.046533
     57 H31A         9.1020     3.5150    -0.7560 hc         1 923       0.046533
     58 H31B         7.3620     3.5340    -0.4600 hc         1 923       0.046533
     59 H32          9.7400    -0.0380     0.1170 hc         1 923       0.046533
     60 H32A        10.4650     1.5020    -0.3460 hc         1 923       0.046533
     61 H32B         9.8510     1.2730     1.2900 hc         1 923       0.046533
     62 HO34        -0.3000    -3.4670     0.1090 ho         1 923       0.479000
@<TRIPOS>BOND
     1     1     2 ar  
     2     1     6 ar  
     3     1    35 1   
     4     2     3 ar  
     5     2    10 1   
     6     3     4 ar  
     7     3    36 1   
     8     4     5 ar  
     9     4    37 1   
    10     5     6 ar  
    11     5     9 1   
    12     6     7 1   
    13     7     8 1   
    14     7    38 1   
    15     7    39 1   
    16     8     9 1   
    17     8    29 1   
    18     8    40 1   
    19    10    11 2   
    20    10    41 1   
    21    11    12 1   
    22    11    15 1   
    23    12    13 1   
    24    13    14 1   
    25    13    33 2   
    26    14    15 2   
    27    14    16 1   
    28    15    34 1   
    29    16    17 ar  
    30    16    21 ar  
    31    17    18 ar  
    32    17    42 1   
    33    18    19 ar  
    34    18    22 1   
    35    19    20 ar  
    36    19    24 1   
    37    20    21 ar  
    38    20    43 1   
    39    21    44 1   
    40    22    23 1   
    41    22    45 1   
    42    22    46 1   
    43    23    24 1   
    44    23    25 1   
    45    23    47 1   
    46    25    26 1   
    47    25    27 1   
    48    25    28 1   
    49    26    48 1   
    50    26    49 1   
    51    26    50 1   
    52    27    51 1   
    53    28    52 1   
    54    28    53 1   
    55    28    54 1   
    56    29    30 1   
    57    29    31 1   
    58    29    32 1   
    59    30    55 1   
    60    31    56 1   
    61    31    57 1   
    62    31    58 1   
    63    32    59 1   
    64    32    60 1   
    65    32    61 1   
    66    34    62 1   
@<TRIPOS>SUBSTRUCTURE
     1 923         1 TEMP              0 ****  ****    0 ROOT
