@<TRIPOS>MOLECULE
924
   47    51     1     0     0
SMALL
No Charge or Current Charge


@<TRIPOS>ATOM
      1 N1          -3.0840    -1.5910     1.8830 nv         1 924      -1.057900
      2 C2          -4.0620    -1.4520     0.9880 ca         1 924       0.647900
      3 N3          -5.0880    -2.2110     1.3630 nb         1 924      -0.767000
      4 C4          -6.2330    -2.1000     0.6460 ca         1 924       0.395900
      5 C5          -6.3850    -1.1970    -0.4230 ca         1 924      -0.198000
      6 C6          -5.2870    -0.4030    -0.7810 ca         1 924      -0.106000
      7 S7          -5.2940     0.8690    -2.0230 ss         1 924       0.089400
      8 C8          -3.6220     1.2730    -1.5630 cc         1 924      -0.174400
      9 C9          -3.0990     0.3910    -0.6320 cd         1 924       0.005600
     10 C10         -1.6970     0.5060    -0.1710 ca         1 924      -0.074800
     11 C11         -0.9160    -0.6420     0.1090 ca         1 924      -0.066000
     12 C12          0.4300    -0.5260     0.5080 ca         1 924      -0.154000
     13 C13          0.9920     0.7570     0.6130 ca         1 924      -0.011000
     14 N14          2.3140     1.1690     0.9200 n          1 924      -0.228400
     15 C15          2.3810     2.6310     1.1730 c5         1 924       0.095000
     16 C16          1.0550     3.1590     0.4870 c5         1 924      -0.043100
     17 C17          0.2560     1.8800     0.3090 ca         1 924      -0.138300
     18 C18         -1.0840     1.7790    -0.0950 ca         1 924      -0.056000
     19 C19          3.4230     0.3590     1.2600 c          1 924       0.609100
     20 O20          4.2320     0.7330     2.1040 o          1 924      -0.570100
     21 C21          3.6590    -0.9540     0.4920 c3         1 924      -0.106100
     22 C22          5.0160    -0.9600    -0.2050 ca         1 924      -0.074300
     23 C23          6.1060    -1.6550     0.3550 ca         1 924      -0.092000
     24 C24          7.3550    -1.6530    -0.2920 ca         1 924      -0.109000
     25 C25          7.5200    -0.9570    -1.5010 ca         1 924      -0.104000
     26 C26          6.4360    -0.2610    -2.0630 ca         1 924      -0.109000
     27 C27          5.1880    -0.2630    -1.4170 ca         1 924      -0.092000
     28 C28         -4.0930    -0.5490    -0.1020 ca         1 924      -0.174800
     29 HN1         -2.4300    -0.8220     1.9530 hn         1 924       0.481000
     30 HN1A        -3.3690    -2.0300     2.7470 hn         1 924       0.481000
     31 H4          -7.0650    -2.7310     0.9600 h4         1 924       0.017100
     32 H5          -7.3370    -1.1120    -0.9390 ha         1 924       0.132000
     33 H8          -3.1250     2.0830    -2.0810 h4         1 924       0.220000
     34 H11         -1.3390    -1.6350    -0.0220 ha         1 924       0.130000
     35 H12          0.9910    -1.4250     0.7440 ha         1 924       0.124000
     36 H15          2.3790     2.8340     2.2520 h1         1 924       0.064700
     37 H16          0.5420     3.9020     1.1080 hc         1 924       0.063200
     38 H18         -1.6460     2.6830    -0.3190 ha         1 924       0.123000
     39 H21          3.5880    -1.7820     1.2060 hc         1 924       0.071200
     40 H21A         2.8820    -1.1010    -0.2620 hc         1 924       0.071200
     41 H23          5.9890    -2.1950     1.2920 ha         1 924       0.110000
     42 H24          8.1930    -2.1910     0.1450 ha         1 924       0.112500
     43 H25          8.4860    -0.9550    -2.0010 ha         1 924       0.112000
     44 H26          6.5630     0.2790    -2.9980 ha         1 924       0.112500
     45 H27          4.3540     0.2790    -1.8580 ha         1 924       0.110000
     46 H181         3.2800     3.0850     0.7340 h1         1 924       0.064700
     47 H19          1.2690     3.6290    -0.4790 hc         1 924       0.063200
@<TRIPOS>BOND
     1     1     2 1   
     2     1    29 1   
     3     1    30 1   
     4     2     3 ar  
     5     2    28 ar  
     6     3     4 ar  
     7     4     5 ar  
     8     4    31 1   
     9     5     6 ar  
    10     5    32 1   
    11     6     7 1   
    12     6    28 ar  
    13     7     8 1   
    14     8     9 2   
    15     8    33 1   
    16     9    10 1   
    17     9    28 1   
    18    10    11 ar  
    19    10    18 ar  
    20    11    12 ar  
    21    11    34 1   
    22    12    13 ar  
    23    12    35 1   
    24    13    14 1   
    25    13    17 ar  
    26    14    15 1   
    27    14    19 1   
    28    15    16 1   
    29    15    36 1   
    30    15    46 1   
    31    16    17 1   
    32    16    37 1   
    33    16    47 1   
    34    17    18 ar  
    35    18    38 1   
    36    19    20 2   
    37    19    21 1   
    38    21    22 1   
    39    21    39 1   
    40    21    40 1   
    41    22    23 ar  
    42    22    27 ar  
    43    23    24 ar  
    44    23    41 1   
    45    24    25 ar  
    46    24    42 1   
    47    25    26 ar  
    48    25    43 1   
    49    26    27 ar  
    50    26    44 1   
    51    27    45 1   
@<TRIPOS>SUBSTRUCTURE
     1 924         1 TEMP              0 ****  ****    0 ROOT
