@<TRIPOS>MOLECULE
924
   47    51     1     0     0
SMALL
abcg2


@<TRIPOS>ATOM
      1 N1          -2.7760    -1.5580     1.8260 nv         1 924      -1.057900
      2 C2          -3.9390    -1.4480     1.1320 ca         1 924       0.647900
      3 N3          -4.9300    -2.2400     1.5150 nb         1 924      -0.767000
      4 C4          -6.1070    -2.1880     0.8840 ca         1 924       0.395900
      5 C5          -6.3980    -1.3370    -0.1550 ca         1 924      -0.198000
      6 C6          -5.3520    -0.5070    -0.5660 ca         1 924      -0.106000
      7 S7          -5.4170     0.6830    -1.8110 ss         1 924       0.089400
      8 C8          -3.7670     1.1100    -1.5440 cc         1 924      -0.174400
      9 C9          -3.1700     0.3890    -0.5630 cd         1 924       0.005600
     10 C10         -1.7450     0.5790    -0.2290 ca         1 924      -0.074800
     11 C11         -0.8310    -0.4630    -0.3690 ca         1 924      -0.066000
     12 C12          0.5210    -0.2980    -0.0950 ca         1 924      -0.154000
     13 C13          0.9730     0.9520     0.3150 ca         1 924      -0.011000
     14 N14          2.2520     1.3940     0.6800 n          1 924      -0.228400
     15 C15          2.1580     2.7200     1.3130 c5         1 924       0.095000
     16 C16          0.7740     3.2400     0.9150 c5         1 924      -0.043100
     17 C17          0.0640     2.0020     0.4620 ca         1 924      -0.138300
     18 C18         -1.2760     1.8260     0.1930 ca         1 924      -0.056000
     19 C19          3.4730     0.8010     0.5800 c          1 924       0.609100
     20 O20          4.4520     1.3380     1.0690 o          1 924      -0.570100
     21 C21          3.5830    -0.5140    -0.1640 c3         1 924      -0.106100
     22 C22          5.0120    -0.8740    -0.4450 ca         1 924      -0.074300
     23 C23          5.7210    -1.6980     0.4220 ca         1 924      -0.092000
     24 C24          7.0460    -2.0260     0.1650 ca         1 924      -0.109000
     25 C25          7.6780    -1.5290    -0.9680 ca         1 924      -0.104000
     26 C26          6.9770    -0.7070    -1.8400 ca         1 924      -0.109000
     27 C27          5.6530    -0.3840    -1.5790 ca         1 924      -0.092000
     28 C28         -4.0880    -0.5530     0.0350 ca         1 924      -0.174800
     29 HN1         -2.1150    -0.8020     1.8020 hn         1 924       0.481000
     30 HN1A        -2.8380    -2.0380     2.7090 hn         1 924       0.481000
     31 H4          -6.8680    -2.8680     1.2510 h4         1 924       0.017100
     32 H5          -7.3750    -1.3130    -0.6150 ha         1 924       0.132000
     33 H8          -3.3030     1.8650    -2.1620 h4         1 924       0.220000
     34 H11         -1.1760    -1.4350    -0.6960 ha         1 924       0.130000
     35 H12          1.1680    -1.1530    -0.2010 ha         1 924       0.124000
     36 H15          2.2530     2.6180     2.3960 h1         1 924       0.064700
     37 H16          0.2720     3.7350     1.7450 hc         1 924       0.063200
     38 H18         -1.9690     2.6490     0.3200 ha         1 924       0.123000
     39 H21          3.1170    -1.2950     0.4430 hc         1 924       0.071200
     40 H21A         3.0140    -0.4620    -1.0950 hc         1 924       0.071200
     41 H23          5.2330    -2.0920     1.3060 ha         1 924       0.110000
     42 H24          7.5840    -2.6710     0.8470 ha         1 924       0.112500
     43 H25          8.7100    -1.7850    -1.1710 ha         1 924       0.112000
     44 H26          7.4610    -0.3170    -2.7270 ha         1 924       0.112500
     45 H27          5.1100     0.2550    -2.2670 ha         1 924       0.110000
     46 H181         2.9620     3.3620     0.9630 h1         1 924       0.064700
     47 H19          0.8430     3.9630     0.0990 hc         1 924       0.063200
@<TRIPOS>BOND
     1     1     2 1   
     2     1    29 1   
     3     1    30 1   
     4     2     3 ar  
     5     2    28 ar  
     6     3     4 ar  
     7     4     5 ar  
     8     4    31 1   
     9     5     6 ar  
    10     5    32 1   
    11     6     7 1   
    12     6    28 ar  
    13     7     8 1   
    14     8     9 2   
    15     8    33 1   
    16     9    10 1   
    17     9    28 1   
    18    10    11 ar  
    19    10    18 ar  
    20    11    12 ar  
    21    11    34 1   
    22    12    13 ar  
    23    12    35 1   
    24    13    14 1   
    25    13    17 ar  
    26    14    15 1   
    27    14    19 1   
    28    15    16 1   
    29    15    36 1   
    30    15    46 1   
    31    16    17 1   
    32    16    37 1   
    33    16    47 1   
    34    17    18 ar  
    35    18    38 1   
    36    19    20 2   
    37    19    21 1   
    38    21    22 1   
    39    21    39 1   
    40    21    40 1   
    41    22    23 ar  
    42    22    27 ar  
    43    23    24 ar  
    44    23    41 1   
    45    24    25 ar  
    46    24    42 1   
    47    25    26 ar  
    48    25    43 1   
    49    26    27 ar  
    50    26    44 1   
    51    27    45 1   
@<TRIPOS>SUBSTRUCTURE
     1 924         1 TEMP              0 ****  ****    0 ROOT
