@<TRIPOS>MOLECULE
925
   69    73     1     0     0
SMALL
No Charge or Current Charge


@<TRIPOS>ATOM
      1 C1         -14.3090     2.8300    -7.0770 c3         1 925      -0.095100
      2 N1         -13.6630     1.9530    -9.3410 n3         1 925      -0.497100
      3 O1         -14.9880     2.1950    -9.9540 oh         1 925      -0.480300
      4 C2         -13.8290     1.5610    -7.8480 c6         1 925       0.191700
      5 N2         -10.4680    -0.3700    -7.4220 ns         1 925      -0.501900
      6 O2         -11.2680    -1.8140    -5.8700 o          1 925      -0.609100
      7 C3         -12.4430     1.1110    -7.2070 c6         1 925      -0.089400
      8 N3          -3.6860     2.0450    -8.6680 nc         1 925      -0.683000
      9 O3           2.3830    -3.0200    -4.3100 oh         1 925      -0.532100
     10 C4         -11.7490    -0.0020    -8.0390 c6         1 925       0.112700
     11 N4          -3.3430     0.1280    -7.1390 na         1 925       0.062900
     12 C5         -11.5080     0.4910    -9.4930 c6         1 925      -0.089400
     13 N5          -4.0540    -0.7740    -6.3610 nc         1 925      -0.624100
     14 C6         -12.8570     0.9200   -10.2230 c6         1 925       0.191700
     15 N6          -1.1720    -0.7660    -6.6020 nu         1 925      -0.976000
     16 C7         -13.6400    -0.4080   -10.6230 c3         1 925      -0.095100
     17 C8         -12.4300     1.5320   -11.6300 c3         1 925      -0.095100
     18 C9         -10.3060    -1.2450    -6.3690 c          1 925       0.611700
     19 C10         -8.8910    -1.4640    -5.8710 ca         1 925      -0.152600
     20 C11         -8.6730    -2.3490    -4.7930 ca         1 925      -0.047000
     21 C12         -7.3770    -2.5830    -4.3120 ca         1 925      -0.126000
     22 C13         -6.2780    -1.9340    -4.8950 ca         1 925      -0.061000
     23 C14         -6.4620    -1.0310    -5.9640 ca         1 925      -0.112900
     24 C15         -7.7730    -0.8140    -6.4510 ca         1 925      -0.068000
     25 C16         -5.3000    -0.3620    -6.5960 cd         1 925       0.461200
     26 C17         -5.3540     0.7550    -7.4800 cd         1 925      -0.392600
     27 C18         -4.0810     1.0550    -7.8230 cc         1 925       0.425500
     28 C19         -2.3640     2.0450    -8.8150 cd         1 925       0.413900
     29 C20         -1.4840     1.1230    -8.1380 cd         1 925      -0.317000
     30 C21         -1.9480     0.1730    -7.2440 cc         1 925       0.405000
     31 C22          0.0560    -0.7020    -5.9530 ca         1 925       0.337000
     32 C23          0.7350     0.5150    -5.7640 ca         1 925      -0.175000
     33 C24          1.9700     0.5420    -5.0940 ca         1 925      -0.050000
     34 C25          2.5240    -0.6540    -4.6080 ca         1 925      -0.154000
     35 C26          1.8420    -1.8660    -4.7880 ca         1 925       0.164100
     36 C27          0.6090    -1.8900    -5.4550 ca         1 925      -0.239000
     37 C28        -14.9180     0.4490    -7.5100 c3         1 925      -0.095100
     38 H1         -14.3480     2.6550    -5.9950 hc         1 925       0.042533
     39 H1A        -13.6310     3.6760    -7.2450 hc         1 925       0.042533
     40 H1B        -15.3110     3.1450    -7.3930 hc         1 925       0.042533
     41 HO1        -14.9760     3.1490   -10.2060 ho         1 925       0.448000
     42 HN2         -9.6270     0.0600    -7.7820 hn         1 925       0.313500
     43 H3         -11.7720     1.9780    -7.1420 hc         1 925       0.053700
     44 H3A        -12.5990     0.7670    -6.1750 hc         1 925       0.053700
     45 HO3          1.7750    -3.7590    -4.5270 ho         1 925       0.467000
     46 H4         -12.3840    -0.8990    -8.0600 h1         1 925       0.085700
     47 H5         -10.8220     1.3490    -9.4710 hc         1 925       0.053700
     48 H5A        -10.9990    -0.2930   -10.0700 hc         1 925       0.053700
     49 HN6         -1.7530    -1.5500    -6.2970 hn         1 925       0.533000
     50 H7         -13.0460    -1.0270   -11.3070 hc         1 925       0.042533
     51 H7A        -13.8710    -1.0440    -9.7670 hc         1 925       0.042533
     52 H7B        -14.5840    -0.1870   -11.1340 hc         1 925       0.042533
     53 H8         -11.8000     0.8400   -12.2030 hc         1 925       0.042533
     54 H8A        -13.3040     1.7690   -12.2480 hc         1 925       0.042533
     55 H8B        -11.8600     2.4590   -11.4990 hc         1 925       0.042533
     56 H11         -9.5100    -2.8640    -4.3250 ha         1 925       0.138000
     57 H12         -7.2220    -3.2720    -3.4840 ha         1 925       0.120000
     58 H13         -5.2830    -2.1340    -4.5030 ha         1 925       0.126000
     59 H15         -7.9120    -0.1410    -7.2910 ha         1 925       0.115000
     60 H17         -6.2340     1.2800    -7.8220 ha         1 925       0.225000
     61 H19         -1.9920     2.7960    -9.5000 h4         1 925       0.027100
     62 H20         -0.4230     1.1850    -8.3420 ha         1 925       0.146000
     63 H23          0.3060     1.4470    -6.1180 ha         1 925       0.130000
     64 H24          2.4930     1.4850    -4.9490 ha         1 925       0.122000
     65 H25          3.4790    -0.6390    -4.0890 ha         1 925       0.136000
     66 H27          0.0830    -2.8290    -5.5960 ha         1 925       0.121000
     67 H28        -14.6210    -0.5510    -7.8310 hc         1 925       0.042533
     68 H28A       -15.0880     0.3800    -6.4290 hc         1 925       0.042533
     69 H28B       -15.8870     0.6730    -7.9720 hc         1 925       0.042533
@<TRIPOS>BOND
     1     1     4 1   
     2     1    38 1   
     3     1    39 1   
     4     1    40 1   
     5     2     3 1   
     6     2     4 1   
     7     2    14 1   
     8     3    41 1   
     9     4     7 1   
    10     4    37 1   
    11     5    10 1   
    12     5    18 1   
    13     5    42 1   
    14     6    18 2   
    15     7    10 1   
    16     7    43 1   
    17     7    44 1   
    18     8    27 1   
    19     8    28 2   
    20     9    35 1   
    21     9    45 1   
    22    10    12 1   
    23    10    46 1   
    24    11    13 1   
    25    11    27 1   
    26    11    30 1   
    27    12    14 1   
    28    12    47 1   
    29    12    48 1   
    30    13    25 2   
    31    14    16 1   
    32    14    17 1   
    33    15    30 1   
    34    15    31 1   
    35    15    49 1   
    36    16    50 1   
    37    16    51 1   
    38    16    52 1   
    39    17    53 1   
    40    17    54 1   
    41    17    55 1   
    42    18    19 1   
    43    19    20 ar  
    44    19    24 ar  
    45    20    21 ar  
    46    20    56 1   
    47    21    22 ar  
    48    21    57 1   
    49    22    23 ar  
    50    22    58 1   
    51    23    24 ar  
    52    23    25 1   
    53    24    59 1   
    54    25    26 1   
    55    26    27 2   
    56    26    60 1   
    57    28    29 1   
    58    28    61 1   
    59    29    30 2   
    60    29    62 1   
    61    31    32 ar  
    62    31    36 ar  
    63    32    33 ar  
    64    32    63 1   
    65    33    34 ar  
    66    33    64 1   
    67    34    35 ar  
    68    34    65 1   
    69    35    36 ar  
    70    36    66 1   
    71    37    67 1   
    72    37    68 1   
    73    37    69 1   
@<TRIPOS>SUBSTRUCTURE
     1 925         1 TEMP              0 ****  ****    0 ROOT
