@<TRIPOS>MOLECULE
925
   69    73     1     0     0
SMALL
abcg2


@<TRIPOS>ATOM
      1 C1         -13.3470     3.3370    -7.4780 c3         1 925      -0.095100
      2 N1         -13.5000     1.8020    -9.3510 n3         1 925      -0.497100
      3 O1         -14.7990     2.3210    -9.7020 oh         1 925      -0.480300
      4 C2         -13.3640     1.8550    -7.8720 c6         1 925       0.191700
      5 N2         -10.4640    -0.6530    -7.7990 ns         1 925      -0.501900
      6 O2         -11.1200    -1.8450    -5.9870 o          1 925      -0.609100
      7 C3         -11.9960     1.2500    -7.5240 c6         1 925      -0.089400
      8 N3          -3.4590     2.1480    -8.6000 nc         1 925      -0.683000
      9 O3           2.2950    -2.8820    -4.2800 oh         1 925      -0.532100
     10 C4         -11.7840    -0.1330    -8.1320 c6         1 925       0.112700
     11 N4          -3.3180     0.3440    -7.0350 na         1 925       0.062900
     12 C5         -11.9460    -0.0500    -9.6420 c6         1 925      -0.089400
     13 N5          -4.0740    -0.6090    -6.4500 nc         1 925      -0.624100
     14 C6         -13.3100     0.5140   -10.0670 c6         1 925       0.191700
     15 N6          -1.4390    -0.3470    -5.9170 nu         1 925      -0.976000
     16 C7         -14.4250    -0.5260    -9.8490 c3         1 925      -0.095100
     17 C8         -13.2430     0.8410   -11.5640 c3         1 925      -0.095100
     18 C9         -10.2220    -1.4260    -6.7230 c          1 925       0.611700
     19 C10         -8.7870    -1.7790    -6.4580 ca         1 925      -0.152600
     20 C11         -8.5190    -2.9520    -5.7510 ca         1 925      -0.047000
     21 C12         -7.2080    -3.3040    -5.4610 ca         1 925      -0.126000
     22 C13         -6.1580    -2.4870    -5.8570 ca         1 925      -0.061000
     23 C14         -6.4090    -1.3000    -6.5530 ca         1 925      -0.112900
     24 C15         -7.7310    -0.9600    -6.8500 ca         1 925      -0.068000
     25 C16         -5.3050    -0.4220    -6.9600 cd         1 925       0.461200
     26 C17         -5.3410     0.6510    -7.8680 cd         1 925      -0.392600
     27 C18         -4.0420     1.1470    -7.9160 cc         1 925       0.425500
     28 C19         -2.1610     2.3080    -8.3900 cd         1 925       0.413900
     29 C20         -1.3790     1.5390    -7.5190 cd         1 925      -0.317000
     30 C21         -1.9810     0.5170    -6.8000 cc         1 925       0.405000
     31 C22         -0.1280    -0.3640    -5.4060 ca         1 925       0.337000
     32 C23          0.5810     0.8040    -5.1260 ca         1 925      -0.175000
     33 C24          1.8580     0.7050    -4.5840 ca         1 925      -0.050000
     34 C25          2.4330    -0.5270    -4.3040 ca         1 925      -0.154000
     35 C26          1.7080    -1.6880    -4.5730 ca         1 925       0.164100
     36 C27          0.4350    -1.6100    -5.1280 ca         1 925      -0.239000
     37 C28        -14.4900     1.1590    -7.0850 c3         1 925      -0.095100
     38 H1         -13.0980     3.4350    -6.4200 hc         1 925       0.042533
     39 H1A        -12.6010     3.8760    -8.0650 hc         1 925       0.042533
     40 H1B        -14.3210     3.7990    -7.6430 hc         1 925       0.042533
     41 HO1        -14.5960     3.1310   -10.1850 ho         1 925       0.448000
     42 HN2         -9.6910    -0.3540    -8.3720 hn         1 925       0.313500
     43 H3         -11.2080     1.9120    -7.8950 hc         1 925       0.053700
     44 H3A        -11.9010     1.2020    -6.4380 hc         1 925       0.053700
     45 HO3          1.7040    -3.6110    -4.5140 ho         1 925       0.467000
     46 H4         -12.5000    -0.8360    -7.7130 h1         1 925       0.085700
     47 H5         -11.1560     0.5940   -10.0420 hc         1 925       0.053700
     48 H5A        -11.8230    -1.0370   -10.0920 hc         1 925       0.053700
     49 HN6         -2.0480    -1.1130    -5.6570 hn         1 925       0.533000
     50 H7         -14.3190    -1.3220   -10.5880 hc         1 925       0.042533
     51 H7A        -14.3920    -0.9850    -8.8640 hc         1 925       0.042533
     52 H7B        -15.4030    -0.0660    -9.9830 hc         1 925       0.042533
     53 H8         -12.9500    -0.0480   -12.1240 hc         1 925       0.042533
     54 H8A        -14.2120     1.1740   -11.9370 hc         1 925       0.042533
     55 H8B        -12.5080     1.6270   -11.7470 hc         1 925       0.042533
     56 H11         -9.3430    -3.5780    -5.4370 ha         1 925       0.138000
     57 H12         -7.0030    -4.2210    -4.9230 ha         1 925       0.120000
     58 H13         -5.1380    -2.7640    -5.6300 ha         1 925       0.126000
     59 H15         -7.9280    -0.0250    -7.3560 ha         1 925       0.115000
     60 H17         -6.1780     1.0190    -8.4360 ha         1 925       0.225000
     61 H19         -1.6790     3.1040    -8.9480 h4         1 925       0.027100
     62 H20         -0.3240     1.7310    -7.4240 ha         1 925       0.146000
     63 H23          0.1360     1.7740    -5.2910 ha         1 925       0.130000
     64 H24          2.4090     1.6100    -4.3620 ha         1 925       0.122000
     65 H25          3.4240    -0.6020    -3.8780 ha         1 925       0.136000
     66 H27         -0.1190    -2.5150    -5.3470 ha         1 925       0.121000
     67 H28        -14.4250     0.0740    -7.1220 hc         1 925       0.042533
     68 H28A       -14.4300     1.4570    -6.0370 hc         1 925       0.042533
     69 H28B       -15.4630     1.4610    -7.4690 hc         1 925       0.042533
@<TRIPOS>BOND
     1     1     4 1   
     2     1    38 1   
     3     1    39 1   
     4     1    40 1   
     5     2     3 1   
     6     2     4 1   
     7     2    14 1   
     8     3    41 1   
     9     4     7 1   
    10     4    37 1   
    11     5    10 1   
    12     5    18 1   
    13     5    42 1   
    14     6    18 2   
    15     7    10 1   
    16     7    43 1   
    17     7    44 1   
    18     8    27 1   
    19     8    28 2   
    20     9    35 1   
    21     9    45 1   
    22    10    12 1   
    23    10    46 1   
    24    11    13 1   
    25    11    27 1   
    26    11    30 1   
    27    12    14 1   
    28    12    47 1   
    29    12    48 1   
    30    13    25 2   
    31    14    16 1   
    32    14    17 1   
    33    15    30 1   
    34    15    31 1   
    35    15    49 1   
    36    16    50 1   
    37    16    51 1   
    38    16    52 1   
    39    17    53 1   
    40    17    54 1   
    41    17    55 1   
    42    18    19 1   
    43    19    20 ar  
    44    19    24 ar  
    45    20    21 ar  
    46    20    56 1   
    47    21    22 ar  
    48    21    57 1   
    49    22    23 ar  
    50    22    58 1   
    51    23    24 ar  
    52    23    25 1   
    53    24    59 1   
    54    25    26 1   
    55    26    27 2   
    56    26    60 1   
    57    28    29 1   
    58    28    61 1   
    59    29    30 2   
    60    29    62 1   
    61    31    32 ar  
    62    31    36 ar  
    63    32    33 ar  
    64    32    63 1   
    65    33    34 ar  
    66    33    64 1   
    67    34    35 ar  
    68    34    65 1   
    69    35    36 ar  
    70    36    66 1   
    71    37    67 1   
    72    37    68 1   
    73    37    69 1   
@<TRIPOS>SUBSTRUCTURE
     1 925         1 TEMP              0 ****  ****    0 ROOT
