@<TRIPOS>MOLECULE
926
   33    35     1     0     0
SMALL
No Charge or Current Charge


@<TRIPOS>ATOM
      1 O13         -4.9880     0.8510     2.0970 o          1 926      -0.562000
      2 C3          -4.2590     0.9350     1.1220 c          1 926       0.554200
      3 N2          -3.2090     0.0840     0.9220 ns         1 926      -0.364100
      4 C1          -2.3500     0.1350    -0.1550 cc         1 926       0.130400
      5 C6          -2.5050     1.0800    -1.1510 cd         1 926      -0.291000
      6 C5          -3.5840     2.0290    -1.0410 cd         1 926      -0.087000
      7 C4          -4.4150     1.9420     0.0630 cc         1 926      -0.319200
      8 C10         -1.2610    -0.8380    -0.2620 ca         1 926      -0.070800
      9 C11         -1.4910    -2.1980     0.0360 ca         1 926      -0.099000
     10 C12         -0.4480    -3.1360    -0.0640 ca         1 926      -0.098000
     11 C7           0.8360    -2.7240    -0.4560 ca         1 926      -0.090000
     12 C8           1.0820    -1.3700    -0.7380 ca         1 926      -0.110000
     13 C9           0.0340    -0.4330    -0.6520 ca         1 926      -0.071000
     14 S14          2.7220    -0.8560    -1.2640 ss         1 926      -0.080300
     15 C15          3.0290     0.1030     0.2010 cc         1 926       0.434800
     16 N19          4.0350     1.0420     0.2260 na         1 926      -0.134500
     17 C18          4.0450     1.5540     1.5070 cc         1 926      -0.210000
     18 C20          4.9190     1.4340    -0.8840 c3         1 926       0.053900
     19 N16          2.4320    -0.0430     1.3720 nd         1 926      -0.611000
     20 C17          3.0590     0.8770     2.1890 cd         1 926       0.219900
     21 H1          -1.8380     1.1050    -2.0070 ha         1 926       0.199000
     22 H2          -3.7430     2.7900    -1.8040 ha         1 926       0.185000
     23 H3          -5.2440     2.6270     0.2030 ha         1 926       0.208000
     24 H5          -2.4820    -2.5340     0.3320 ha         1 926       0.121000
     25 H6          -0.6370    -4.1840     0.1590 ha         1 926       0.120000
     26 H7           1.6390    -3.4540    -0.5350 ha         1 926       0.128000
     27 H8           0.2330     0.6130    -0.8740 ha         1 926       0.131000
     28 H9           4.7260     2.3280     1.8360 h4         1 926       0.159000
     29 H10          4.3160     1.7970    -1.7260 h1         1 926       0.060367
     30 H11          5.5960     2.2320    -0.5570 h1         1 926       0.060367
     31 H12          5.5110     0.5690    -1.2070 h1         1 926       0.060367
     32 H13          2.7710     0.9990     3.2270 h4         1 926       0.044100
     33 H14         -3.0680    -0.6150     1.6380 hn         1 926       0.326500
@<TRIPOS>BOND
     1     1     2 2   
     2     2     3 1   
     3     2     7 1   
     4     3     4 1   
     5     3    33 1   
     6     4     5 2   
     7     4     8 1   
     8     5     6 1   
     9     5    21 1   
    10     6     7 2   
    11     6    22 1   
    12     7    23 1   
    13     8     9 ar  
    14     8    13 ar  
    15     9    10 ar  
    16     9    24 1   
    17    10    11 ar  
    18    10    25 1   
    19    11    12 ar  
    20    11    26 1   
    21    12    13 ar  
    22    12    14 1   
    23    13    27 1   
    24    14    15 1   
    25    15    16 1   
    26    15    19 2   
    27    16    17 1   
    28    16    18 1   
    29    17    20 2   
    30    17    28 1   
    31    18    29 1   
    32    18    30 1   
    33    18    31 1   
    34    19    20 1   
    35    20    32 1   
@<TRIPOS>SUBSTRUCTURE
     1 926         1 TEMP              0 ****  ****    0 ROOT
