@<TRIPOS>MOLECULE
926
   33    35     1     0     0
SMALL
bcc


@<TRIPOS>ATOM
      1 O13         -6.0140    -0.4960     0.9180 o          1 926      -0.637500
      2 C3          -5.1780    -0.0440     0.1410 c          1 926       0.696700
      3 N2          -3.8280    -0.2430     0.3770 ns         1 926      -0.431100
      4 C1          -2.8050     0.2110    -0.3930 cc         1 926       0.130400
      5 C6          -3.0880     0.9400    -1.5100 cd         1 926      -0.241000
      6 C5          -4.4420     1.1900    -1.8250 cd         1 926      -0.037000
      7 C4          -5.4530     0.7190    -1.0470 cc         1 926      -0.269200
      8 C10         -1.4360    -0.1350     0.0240 ca         1 926      -0.070800
      9 C11         -1.1430    -1.3920     0.5520 ca         1 926      -0.117000
     10 C12          0.1550    -1.6940     0.9270 ca         1 926      -0.116000
     11 C7           1.1720    -0.7620     0.7900 ca         1 926      -0.108000
     12 C8           0.8820     0.4940     0.2660 ca         1 926       0.016900
     13 C9          -0.4180     0.8050    -0.1170 ca         1 926      -0.089000
     14 S14          2.0920     1.7750     0.0470 ss         1 926      -0.207200
     15 C15          3.4920     1.1340     0.8620 cc         1 926       0.434800
     16 N19          4.4690     0.4500     0.2130 na         1 926      -0.155900
     17 C18          5.4140     0.1470     1.1400 cc         1 926      -0.242600
     18 C20          4.5350     0.1470    -1.2020 c3         1 926       0.024600
     19 N16          3.7610     1.2730     2.1380 nd         1 926      -0.611000
     20 C17          4.9570     0.6580     2.3270 cd         1 926       0.285200
     21 H1          -2.2950     1.2920    -2.1520 ha         1 926       0.149000
     22 H2          -4.6760     1.7640    -2.7130 ha         1 926       0.135000
     23 H3          -6.4880     0.9100    -1.2930 ha         1 926       0.158000
     24 H5          -1.9120    -2.1480     0.6450 ha         1 926       0.139000
     25 H6           0.3860    -2.6730     1.3260 ha         1 926       0.138000
     26 H7           2.1740    -1.0240     1.0990 ha         1 926       0.146000
     27 H8          -0.6480     1.7910    -0.5040 ha         1 926       0.149000
     28 H9           6.3060    -0.4000     0.8860 h4         1 926       0.177000
     29 H10          4.7930     1.0350    -1.7760 h1         1 926       0.060367
     30 H11          5.2930    -0.6140    -1.3630 h1         1 926       0.060367
     31 H12          3.5790    -0.2330    -1.5520 h1         1 926       0.060367
     32 H13          5.4290     0.6160     3.2950 h4         1 926       0.044100
     33 H14         -3.6040    -0.7470     1.2260 hn         1 926       0.326500
@<TRIPOS>BOND
     1     1     2 2   
     2     2     3 1   
     3     2     7 1   
     4     3     4 1   
     5     3    33 1   
     6     4     5 2   
     7     4     8 1   
     8     5     6 1   
     9     5    21 1   
    10     6     7 2   
    11     6    22 1   
    12     7    23 1   
    13     8     9 ar  
    14     8    13 ar  
    15     9    10 ar  
    16     9    24 1   
    17    10    11 ar  
    18    10    25 1   
    19    11    12 ar  
    20    11    26 1   
    21    12    13 ar  
    22    12    14 1   
    23    13    27 1   
    24    14    15 1   
    25    15    16 1   
    26    15    19 2   
    27    16    17 1   
    28    16    18 1   
    29    17    20 2   
    30    17    28 1   
    31    18    29 1   
    32    18    30 1   
    33    18    31 1   
    34    19    20 1   
    35    20    32 1   
@<TRIPOS>SUBSTRUCTURE
     1 926         1 TEMP              0 ****  ****    0 ROOT
