@<TRIPOS>MOLECULE
927
   73    76     1     0     0
SMALL
abcg2


@<TRIPOS>ATOM
      1 C4           2.8340    -0.9280    -0.4420 c6         1 927      -0.088400
      2 C5           3.9930    -1.8190    -0.0070 c6         1 927      -0.067900
      3 C6           5.3430    -1.1220    -0.2100 c6         1 927      -0.024400
      4 C7           5.3610     0.2280     0.5140 c6         1 927      -0.067900
      5 C8           4.2100     1.1180     0.0590 c6         1 927      -0.088400
      6 C10          6.6460    -2.4050     1.5440 ca         1 927      -0.162000
      7 N12          8.6110    -3.6630     1.0070 nb         1 927      -0.664000
      8 C13          8.4600    -3.2800    -0.2560 ca         1 927       0.334400
      9 C20         -1.3430     5.5330    -0.3990 c2         1 927      -0.085400
     10 C21         -2.0410     6.1670    -1.5660 c3         1 927      -0.060900
     11 C22         -1.5200     6.2680     0.8950 c3         1 927      -0.060900
     12 C24         -2.3610     2.7800     1.7370 ca         1 927      -0.161000
     13 C26         -4.2920     1.3300     1.5160 ca         1 927      -0.139000
     14 O30         -6.3150    -0.3160     0.1970 o          1 927      -0.579100
     15 C29         -5.3670    -1.0240    -0.0960 c          1 927       0.619700
     16 C31         -5.5670    -2.3720    -0.7090 ca         1 927      -0.156600
     17 C36         -4.6780    -3.4260    -0.5130 ca         1 927      -0.072000
     18 C35         -4.9290    -4.6680    -1.0790 ca         1 927      -0.119500
     19 C34         -6.0650    -4.8640    -1.8520 ca         1 927      -0.088000
     20 C33         -6.9580    -3.8170    -2.0460 ca         1 927      -0.119500
     21 C32         -6.7170    -2.5810    -1.4690 ca         1 927      -0.072000
     22 C27         -3.5650     0.5090     0.6520 ca         1 927      -0.005000
     23 C25         -3.6770     2.4580     2.0350 ca         1 927      -0.073000
     24 C37         -2.2520     0.8420     0.3310 ca         1 927      -0.174000
     25 C23         -1.6320     1.9590     0.8820 ca         1 927       0.013000
     26 N17         -0.3010     2.2430     0.5190 n          1 927      -0.256400
     27 C18          0.1150     3.6480     0.4860 c3         1 927       0.149200
     28 C19         -0.6380     4.4110    -0.5560 c2         1 927      -0.247200
     29 O16          0.4610     0.3590     1.5610 o          1 927      -0.608100
     30 N2           1.7460     1.2760    -0.0640 n          1 927      -0.419800
     31 C1           1.7690     1.9080    -1.3700 c3         1 927       0.092300
     32 C3           2.8740     0.4150     0.2850 c6         1 927       0.115700
     33 C9           6.4840    -2.0030     0.2200 ca         1 927      -0.035300
     34 C14          7.4280    -2.4620    -0.6920 ca         1 927      -0.162000
     35 C11          7.7110    -3.2240     1.8810 ca         1 927       0.334400
     36 H1           2.8870    -0.7730    -1.5240 hc         1 927       0.048200
     37 H2           1.8860    -1.4280    -0.2360 hc         1 927       0.048200
     38 H3           3.8720    -2.0840     1.0480 hc         1 927       0.048450
     39 H4           3.9720    -2.7550    -0.5700 hc         1 927       0.048450
     40 H5           5.4600    -0.9270    -1.2820 hc         1 927       0.053700
     41 H6           5.2910     0.0680     1.5950 hc         1 927       0.048450
     42 H7           6.3120     0.7340     0.3330 hc         1 927       0.048450
     43 H8           4.2280     2.0620     0.6100 hc         1 927       0.048200
     44 H9           4.3460     1.3610    -1.0000 hc         1 927       0.048200
     45 H10          5.9550    -2.0910     2.3170 ha         1 927       0.121500
     46 H11          9.1980    -3.6420    -0.9640 h4         1 927       0.018100
     47 H12         -3.1190     6.2170    -1.3910 hc         1 927       0.042200
     48 H13         -1.7030     7.1950    -1.7120 hc         1 927       0.042200
     49 H14         -1.8740     5.6200    -2.4930 hc         1 927       0.042200
     50 H15         -2.5810     6.3610     1.1380 hc         1 927       0.042200
     51 H16         -1.0210     5.8000     1.7410 hc         1 927       0.042200
     52 H17         -1.1320     7.2860     0.8080 hc         1 927       0.042200
     53 H18         -1.9210     3.6590     2.1840 ha         1 927       0.115000
     54 H19         -5.3100     1.1030     1.7860 ha         1 927       0.143000
     55 H20         -3.7970    -3.3050     0.1060 ha         1 927       0.125500
     56 H21         -4.2390    -5.4830    -0.9100 ha         1 927       0.118000
     57 H22         -6.2570    -5.8310    -2.2980 ha         1 927       0.116000
     58 H23         -7.8460    -3.9660    -2.6470 ha         1 927       0.118000
     59 H24         -7.4190    -1.7710    -1.6190 ha         1 927       0.125500
     60 H25         -3.3750    -1.2630    -0.3380 hn         1 927       0.154000
     61 H26         -4.2370     3.0960     2.7060 ha         1 927       0.113000
     62 H27         -1.7060     0.2200    -0.3690 ha         1 927       0.113000
     63 H28          0.0150     4.0950     1.4790 h1         1 927       0.049700
     64 H29          1.1830     3.6790     0.2730 h1         1 927       0.049700
     65 H30         -0.5890     3.9780    -1.5520 ha         1 927       0.173000
     66 H31          2.3670     2.8210    -1.3880 h1         1 927       0.040033
     67 H32          2.1880     1.2220    -2.1060 h1         1 927       0.040033
     68 H33          0.7610     2.1480    -1.6970 h1         1 927       0.040033
     69 H34          2.7920     0.2150     1.3550 h1         1 927       0.079700
     70 H35          7.3660    -2.1880    -1.7370 ha         1 927       0.121500
     71 H36          7.8420    -3.5420     2.9100 h4         1 927       0.018100
     72 C15          0.6400     1.2290     0.7200 c          1 927       0.657100
     73 N28         -4.0700    -0.6680     0.0870 ns         1 927      -0.144000
@<TRIPOS>BOND
     1     1     2 1   
     2     1    32 1   
     3     1    36 1   
     4     1    37 1   
     5     2     3 1   
     6     2    38 1   
     7     2    39 1   
     8     3     4 1   
     9     3    33 1   
    10     3    40 1   
    11     4     5 1   
    12     4    41 1   
    13     4    42 1   
    14     5    32 1   
    15     5    43 1   
    16     5    44 1   
    17     6    33 ar  
    18     6    35 ar  
    19     6    45 1   
    20     7     8 ar  
    21     7    35 ar  
    22     8    34 ar  
    23     8    46 1   
    24     9    10 1   
    25     9    11 1   
    26     9    28 2   
    27    10    47 1   
    28    10    48 1   
    29    10    49 1   
    30    11    50 1   
    31    11    51 1   
    32    11    52 1   
    33    12    23 ar  
    34    12    25 ar  
    35    12    53 1   
    36    13    22 ar  
    37    13    23 ar  
    38    13    54 1   
    39    14    15 2   
    40    15    16 1   
    41    15    73 1   
    42    16    17 ar  
    43    16    21 ar  
    44    17    18 ar  
    45    17    55 1   
    46    18    19 ar  
    47    18    56 1   
    48    19    20 ar  
    49    19    57 1   
    50    20    21 ar  
    51    20    58 1   
    52    21    59 1   
    53    22    24 ar  
    54    22    73 1   
    55    23    61 1   
    56    24    25 ar  
    57    24    62 1   
    58    25    26 1   
    59    26    27 1   
    60    26    72 1   
    61    27    28 1   
    62    27    63 1   
    63    27    64 1   
    64    28    65 1   
    65    29    72 2   
    66    30    31 1   
    67    30    32 1   
    68    30    72 1   
    69    31    66 1   
    70    31    67 1   
    71    31    68 1   
    72    32    69 1   
    73    33    34 ar  
    74    34    70 1   
    75    35    71 1   
    76    60    73 1   
@<TRIPOS>SUBSTRUCTURE
     1 927         1 TEMP              0 ****  ****    0 ROOT
