@<TRIPOS>MOLECULE
927
   73    76     1     0     0
SMALL
No Charge or Current Charge


@<TRIPOS>ATOM
      1 C4           2.6580    -0.6620    -0.4260 c6         1 927      -0.088400
      2 C5           3.8460    -1.5990    -0.0900 c6         1 927      -0.067900
      3 C6           5.2000    -0.8390    -0.1350 c6         1 927      -0.024400
      4 C7           5.1600     0.3940     0.8110 c6         1 927      -0.067900
      5 C8           3.9730     1.3290     0.4660 c6         1 927      -0.088400
      6 C10          6.5070    -2.4060     1.4300 ca         1 927      -0.162000
      7 N12          8.5790    -3.4680     0.7520 nb         1 927      -0.664000
      8 C13          8.4620    -2.8510    -0.4460 ca         1 927       0.334400
      9 C20         -0.3910     5.5790    -0.7630 c2         1 927      -0.085400
     10 C21         -0.9290     6.2280    -2.0240 c3         1 927      -0.060900
     11 C22          0.7360     6.3810    -0.1310 c3         1 927      -0.060900
     12 C24         -2.9660     2.5520     2.1220 ca         1 927      -0.161000
     13 C26         -4.7970     0.9900     1.7500 ca         1 927      -0.139000
     14 O30         -6.6730    -1.1520     0.6890 o          1 927      -0.579100
     15 C29         -5.6740    -1.5490     0.0990 c          1 927       0.619700
     16 C31         -5.7140    -2.8120    -0.7470 ca         1 927      -0.156600
     17 C36         -4.5740    -3.2960    -1.4390 ca         1 927      -0.072000
     18 C35         -4.6510    -4.4690    -2.2110 ca         1 927      -0.119500
     19 C34         -5.8590    -5.1770    -2.3070 ca         1 927      -0.088000
     20 C33         -6.9940    -4.7110    -1.6280 ca         1 927      -0.119500
     21 C32         -6.9240    -3.5390    -0.8540 ca         1 927      -0.072000
     22 C27         -4.0100     0.2790     0.8210 ca         1 927      -0.005000
     23 C25         -4.2690     2.1140     2.4040 ca         1 927      -0.073000
     24 C37         -2.7040     0.7300     0.5520 ca         1 927      -0.174000
     25 C23         -2.1860     1.9040     1.1390 ca         1 927       0.013000
     26 N17         -0.7930     2.2380     0.9400 n          1 927      -0.256400
     27 C18         -0.4070     3.6730     0.9520 c3         1 927       0.149200
     28 C19         -0.8770     4.4200    -0.2840 c2         1 927      -0.247200
     29 O16          0.0600     0.2090     1.5930 o          1 927      -0.608100
     30 N2           1.4490     1.4440     0.2580 n          1 927      -0.419800
     31 C1           1.4900     2.2920    -0.9640 c3         1 927       0.092300
     32 C3           2.6210     0.5620     0.5310 c6         1 927       0.115700
     33 C9           6.3830    -1.7630     0.1830 ca         1 927      -0.035300
     34 C14          7.3910    -2.0000    -0.7690 ca         1 927      -0.162000
     35 C11          7.6110    -3.2420     1.6700 ca         1 927       0.334400
     36 H1           2.7380    -0.3320    -1.4700 hc         1 927       0.048200
     37 H2           1.7170    -1.2230    -0.3480 hc         1 927       0.048200
     38 H3           3.6910    -2.0400     0.9040 hc         1 927       0.048450
     39 H4           3.8670    -2.4360    -0.8010 hc         1 927       0.048450
     40 H5           5.3300    -0.4610    -1.1590 hc         1 927       0.053700
     41 H6           5.0770     0.0680     1.8570 hc         1 927       0.048450
     42 H7           6.1030     0.9520     0.7330 hc         1 927       0.048450
     43 H8           3.9540     2.1730     1.1690 hc         1 927       0.048200
     44 H9           4.1340     1.7560    -0.5320 hc         1 927       0.048200
     45 H10          5.7640    -2.2660     2.2090 ha         1 927       0.121500
     46 H11          9.2520    -3.0460    -1.1710 h4         1 927       0.018100
     47 H12         -1.3280     7.2280    -1.8140 hc         1 927       0.042200
     48 H13         -0.1420     6.3340    -2.7800 hc         1 927       0.042200
     49 H14         -1.7380     5.6390    -2.4720 hc         1 927       0.042200
     50 H15          0.4090     7.4020     0.0980 hc         1 927       0.042200
     51 H16          1.0980     5.9430     0.8050 hc         1 927       0.042200
     52 H17          1.5940     6.4530    -0.8110 hc         1 927       0.042200
     53 H18         -2.5780     3.3970     2.6800 ha         1 927       0.115000
     54 H19         -5.8050     0.6760     2.0020 ha         1 927       0.143000
     55 H20         -3.6180    -2.7790    -1.3920 ha         1 927       0.125500
     56 H21         -3.7700    -4.8300    -2.7380 ha         1 927       0.118000
     57 H22         -5.9150    -6.0830    -2.9050 ha         1 927       0.116000
     58 H23         -7.9320    -5.2570    -1.7000 ha         1 927       0.118000
     59 H24         -7.8190    -3.1990    -0.3370 ha         1 927       0.125500
     60 H25         -3.7260    -1.3320    -0.4070 hn         1 927       0.154000
     61 H26         -4.8670     2.6380     3.1470 ha         1 927       0.113000
     62 H27         -2.0890     0.1710    -0.1500 ha         1 927       0.113000
     63 H28         -0.8230     4.1600     1.8410 h1         1 927       0.049700
     64 H29          0.6790     3.7600     1.0640 h1         1 927       0.049700
     65 H30         -1.6930     3.9210    -0.8080 ha         1 927       0.173000
     66 H31          1.8680     3.2920    -0.7180 h1         1 927       0.040033
     67 H32          2.1500     1.8480    -1.7190 h1         1 927       0.040033
     68 H33          0.4900     2.3720    -1.4070 h1         1 927       0.040033
     69 H34          2.5290     0.1780     1.5580 h1         1 927       0.079700
     70 H35          7.3550    -1.5340    -1.7500 ha         1 927       0.121500
     71 H36          7.7230    -3.7480     2.6280 h4         1 927       0.018100
     72 C15          0.2280     1.2460     0.9610 c          1 927       0.657100
     73 N28         -4.4490    -0.8930     0.1450 ns         1 927      -0.144000
@<TRIPOS>BOND
     1     1     2 1   
     2     1    32 1   
     3     1    36 1   
     4     1    37 1   
     5     2     3 1   
     6     2    38 1   
     7     2    39 1   
     8     3     4 1   
     9     3    33 1   
    10     3    40 1   
    11     4     5 1   
    12     4    41 1   
    13     4    42 1   
    14     5    32 1   
    15     5    43 1   
    16     5    44 1   
    17     6    33 ar  
    18     6    35 ar  
    19     6    45 1   
    20     7     8 ar  
    21     7    35 ar  
    22     8    34 ar  
    23     8    46 1   
    24     9    10 1   
    25     9    11 1   
    26     9    28 2   
    27    10    47 1   
    28    10    48 1   
    29    10    49 1   
    30    11    50 1   
    31    11    51 1   
    32    11    52 1   
    33    12    23 ar  
    34    12    25 ar  
    35    12    53 1   
    36    13    22 ar  
    37    13    23 ar  
    38    13    54 1   
    39    14    15 2   
    40    15    16 1   
    41    15    73 1   
    42    16    17 ar  
    43    16    21 ar  
    44    17    18 ar  
    45    17    55 1   
    46    18    19 ar  
    47    18    56 1   
    48    19    20 ar  
    49    19    57 1   
    50    20    21 ar  
    51    20    58 1   
    52    21    59 1   
    53    22    24 ar  
    54    22    73 1   
    55    23    61 1   
    56    24    25 ar  
    57    24    62 1   
    58    25    26 1   
    59    26    27 1   
    60    26    72 1   
    61    27    28 1   
    62    27    63 1   
    63    27    64 1   
    64    28    65 1   
    65    29    72 2   
    66    30    31 1   
    67    30    32 1   
    68    30    72 1   
    69    31    66 1   
    70    31    67 1   
    71    31    68 1   
    72    32    69 1   
    73    33    34 ar  
    74    34    70 1   
    75    35    71 1   
    76    60    73 1   
@<TRIPOS>SUBSTRUCTURE
     1 927         1 TEMP              0 ****  ****    0 ROOT
