@<TRIPOS>MOLECULE
928
   22    23     1     0     0
SMALL
bcc


@<TRIPOS>ATOM
      1 N15         -5.5760    -0.7840    -0.3850 n1         1 928      -0.396800
      2 C14         -4.5280    -0.3400    -0.1830 cg         1 928       0.283800
      3 C4          -3.2540     0.1920     0.0600 cc         1 928      -0.312300
      4 C3          -2.9080     1.4680     0.5670 cc         1 928       0.391200
      5 N2          -1.6180     1.6190     0.6460 nd         1 928      -0.509800
      6 C5          -2.0310    -0.4410    -0.1770 cd         1 928       0.241300
      7 N13         -1.7710    -1.6320    -0.7420 nv         1 928      -0.839200
      8 N1          -1.0890     0.4470     0.2010 na         1 928       0.113300
      9 C6           0.3120     0.2860     0.1350 ca         1 928       0.013800
     10 C11          1.0680     1.1880    -0.6030 ca         1 928      -0.116500
     11 C10          2.4430     1.0410    -0.6690 ca         1 928      -0.111500
     12 C9           3.0460    -0.0180    -0.0070 ca         1 928       0.029400
     13 CL12         4.7620    -0.2100    -0.1010 cl         1 928      -0.095400
     14 C8           2.3000    -0.9220     0.7330 ca         1 928      -0.111500
     15 C7           0.9250    -0.7590     0.8120 ca         1 928      -0.116500
     16 H3          -3.5810     2.2540     0.8700 h4         1 928       0.049100
     17 HN13        -2.5180    -2.3040    -0.7870 hn         1 928       0.436800
     18 HN1A        -0.8520    -2.0350    -0.6660 hn         1 928       0.436800
     19 H11          0.5860     2.0030    -1.1260 ha         1 928       0.152500
     20 H10          3.0350     1.7420    -1.2410 ha         1 928       0.155000
     21 H8           2.7790    -1.7380     1.2550 ha         1 928       0.155000
     22 H7           0.3420    -1.4390     1.4200 ha         1 928       0.152500
@<TRIPOS>BOND
     1     1     2 3   
     2     2     3 1   
     3     3     4 1   
     4     3     6 2   
     5     4     5 2   
     6     4    16 1   
     7     5     8 1   
     8     6     7 1   
     9     6     8 1   
    10     7    17 1   
    11     7    18 1   
    12     8     9 1   
    13     9    10 ar  
    14     9    15 ar  
    15    10    11 ar  
    16    10    19 1   
    17    11    12 ar  
    18    11    20 1   
    19    12    13 1   
    20    12    14 ar  
    21    14    15 ar  
    22    14    21 1   
    23    15    22 1   
@<TRIPOS>SUBSTRUCTURE
     1 928         1 TEMP              0 ****  ****    0 ROOT
