@<TRIPOS>MOLECULE
928
   22    23     1     0     0
SMALL
No Charge or Current Charge


@<TRIPOS>ATOM
      1 N15         -5.5610    -0.6330    -0.6470 n1         1 928      -0.486000
      2 C14         -4.4920    -0.2850    -0.3360 cg         1 928       0.373000
      3 C4          -3.2100     0.1560     0.0650 cc         1 928      -0.247000
      4 C3          -2.9850     1.2030     0.9830 cc         1 928       0.325900
      5 N2          -1.7110     1.4630     1.2300 nd         1 928      -0.509800
      6 C5          -1.9920    -0.2970    -0.3110 cd         1 928       0.329000
      7 N13         -1.6340    -1.3060    -1.1790 nv         1 928      -1.088000
      8 N1          -1.1060     0.5250     0.4120 na         1 928       0.164000
      9 C6           0.2650     0.3080     0.2670 ca         1 928       0.013800
     10 C11          0.9620     0.8700    -0.8220 ca         1 928      -0.098500
     11 C10          2.3450     0.6530    -0.9630 ca         1 928      -0.093500
     12 C9           3.0340    -0.1220    -0.0150 ca         1 928       0.121000
     13 Cl12         4.7630    -0.3920    -0.1920 cl         1 928      -0.187000
     14 C8           2.3450    -0.6810     1.0740 ca         1 928      -0.093500
     15 C7           0.9620    -0.4650     1.2160 ca         1 928      -0.098500
     16 H3          -3.7370     1.7940     1.4890 h4         1 928       0.049100
     17 HN13        -2.3420    -1.9470    -1.5350 hn         1 928       0.492000
     18 HN1A        -0.6620    -1.6080    -1.2350 hn         1 928       0.492000
     19 H11          0.4320     1.4730    -1.5560 ha         1 928       0.134500
     20 H10          2.8820     1.0860    -1.8030 ha         1 928       0.137000
     21 H8           2.8820    -1.2790     1.8070 ha         1 928       0.137000
     22 H7           0.4320    -0.8970     2.0630 ha         1 928       0.134500
@<TRIPOS>BOND
     1     1     2 3   
     2     2     3 1   
     3     3     4 1   
     4     3     6 2   
     5     4     5 2   
     6     4    16 1   
     7     5     8 1   
     8     6     7 1   
     9     6     8 1   
    10     7    17 1   
    11     7    18 1   
    12     8     9 1   
    13     9    10 ar  
    14     9    15 ar  
    15    10    11 ar  
    16    10    19 1   
    17    11    12 ar  
    18    11    20 1   
    19    12    13 1   
    20    12    14 ar  
    21    14    15 ar  
    22    14    21 1   
    23    15    22 1   
@<TRIPOS>SUBSTRUCTURE
     1 928         1 TEMP              0 ****  ****    0 ROOT
