@<TRIPOS>MOLECULE
929
  113   116     1     0     0
SMALL
abcg2


@<TRIPOS>ATOM
      1 O6          -4.3500     2.3500     2.5020 o          1 929      -0.592100
      2 C34         -3.5950     1.4510     2.1650 c          1 929       0.613700
      3 N4          -2.3210     1.3390     2.5800 ns         1 929      -0.504900
      4 C35         -1.6220     2.2930     3.4330 c3         1 929       0.172000
      5 C36         -0.2430     1.7340     3.7030 ca         1 929      -0.118300
      6 C42          0.2430     1.6180     5.0000 ca         1 929      -0.103000
      7 C41          1.5210     1.1210     5.2310 ca         1 929      -0.109500
      8 C40          2.3220     0.7300     4.1680 ca         1 929      -0.099000
      9 C39          1.8450     0.8450     2.8680 ca         1 929      -0.109500
     10 C38          0.5730     1.3470     2.6410 ca         1 929      -0.103000
     11 C37         -1.5160     3.6740     2.7880 c3         1 929      -0.101100
     12 C30         -4.0370     0.3780     1.2150 ca         1 929      -0.142600
     13 C31         -5.3890     0.0730     1.1200 ca         1 929      -0.057000
     14 C32         -5.8200    -0.9290     0.2590 ca         1 929       0.261000
     15 N5          -7.1860    -1.2930     0.2110 nh         1 929      -0.785300
     16 S           -8.0420    -1.0040    -1.1960 s6         1 929       1.207100
     17 O8          -7.1020    -0.5120    -2.1880 o          1 929      -0.529500
     18 C44         -8.5880    -2.6240    -1.6690 c3         1 929      -0.350100
     19 O7          -9.2190    -0.2090    -0.8780 o          1 929      -0.529500
     20 C43         -7.9550    -1.3210     1.4510 c3         1 929       0.202100
     21 C33         -4.8980    -1.6180    -0.5210 ca         1 929      -0.028000
     22 C29         -3.1300    -0.2780     0.3940 ca         1 929      -0.076000
     23 C27         -3.5560    -1.2700    -0.4820 ca         1 929      -0.145600
     24 C28         -2.5770    -2.0370    -1.3170 c          1 929       0.616700
     25 O5          -2.7810    -3.2030    -1.6190 o          1 929      -0.602100
     26 N1          -1.4820    -1.3460    -1.6740 ns         1 929      -0.499900
     27 C5          -0.2850    -1.9130    -2.2510 c3         1 929       0.088700
     28 C6           0.2620    -0.9860    -3.3200 c3         1 929       0.150600
     29 O2           0.5840     0.2420    -2.7180 os         1 929      -0.459000
     30 C20          1.3260     1.0990    -3.5330 c3         1 929       0.205900
     31 C21          1.7090     2.3370    -2.7710 ca         1 929      -0.032300
     32 C26          2.2950     3.3870    -3.4740 ca         1 929      -0.161000
     33 C25          2.6850     4.5140    -2.7840 ca         1 929       0.200000
     34 F1           3.2520     5.5240    -3.4590 f          1 929      -0.172000
     35 C24          2.5120     4.6560    -1.4200 ca         1 929      -0.200000
     36 C23          1.9250     3.5960    -0.7600 ca         1 929       0.200000
     37 F2           1.7400     3.7000     0.5620 f          1 929      -0.172000
     38 C22          1.5180     2.4390    -1.3980 ca         1 929      -0.161000
     39 C1           0.7760    -2.2070    -1.1490 c3         1 929       0.148300
     40 O1           0.6720    -1.3150    -0.0600 oh         1 929      -0.655000
     41 C3           0.7320    -3.6660    -0.7090 c3         1 929      -0.114400
     42 C2           1.7370    -4.0450     0.3890 c3         1 929      -0.133700
     43 C7           1.5820    -5.5150     0.7600 c3         1 929      -0.080100
     44 C4           3.1640    -3.7470    -0.0560 c          1 929       0.604100
     45 O3           3.8230    -4.5460    -0.7060 o          1 929      -0.611100
     46 N2           3.6210    -2.5370     0.3120 ns         1 929      -0.491900
     47 C8           4.9360    -2.0190     0.0450 c3         1 929       0.033700
     48 C10          4.9840    -1.0630    -1.1750 c3         1 929      -0.067700
     49 C12          4.6460    -1.7860    -2.4730 c3         1 929      -0.093600
     50 C11          4.0980     0.1620    -0.9790 c3         1 929      -0.093600
     51 C9           5.4060    -1.2720     1.2940 c          1 929       0.590100
     52 O4           4.6390    -0.9960     2.2030 o          1 929      -0.609100
     53 N3           6.6970    -0.9010     1.2950 ns         1 929      -0.494900
     54 C13          7.1780     0.1620     2.1630 c3         1 929       0.147300
     55 C14          6.6750     1.5030     1.6860 ca         1 929      -0.128300
     56 C19          5.5720     2.1060     2.2800 ca         1 929      -0.093500
     57 C18          5.0410     3.2800     1.7600 ca         1 929      -0.112500
     58 C17          5.6170     3.8690     0.6440 ca         1 929      -0.103000
     59 C16          6.7310     3.2840     0.0550 ca         1 929      -0.112500
     60 C15          7.2540     2.1080     0.5730 ca         1 929      -0.093500
     61 HN4         -1.8800     0.4400     2.4740 hn         1 929       0.314500
     62 H35         -2.1570     2.3890     4.3840 h1         1 929       0.057700
     63 H42         -0.3800     1.9110     5.8360 ha         1 929       0.113000
     64 H41          1.8850     1.0320     6.2470 ha         1 929       0.120500
     65 H40          3.3120     0.3310     4.3480 ha         1 929       0.126000
     66 H39          2.4650     0.5450     2.0350 ha         1 929       0.120500
     67 H38          0.2160     1.4340     1.6220 ha         1 929       0.113000
     68 H37         -2.4940     4.1120     2.6040 hc         1 929       0.049700
     69 H37A        -0.9670     4.3420     3.4520 hc         1 929       0.049700
     70 H37B        -0.9750     3.6220     1.8420 hc         1 929       0.049700
     71 H31         -6.1010     0.6100     1.7340 ha         1 929       0.144000
     72 H44         -9.1720    -3.0650    -0.8650 h1         1 929       0.104367
     73 H44A        -9.2080    -2.5200    -2.5580 h1         1 929       0.104367
     74 H44B        -7.7210    -3.2440    -1.8870 h1         1 929       0.104367
     75 H43         -8.2600    -0.3320     1.7940 h1         1 929       0.051700
     76 H43A        -8.8460    -1.9350     1.3290 h1         1 929       0.051700
     77 H43B        -7.3440    -1.7910     2.2170 h1         1 929       0.051700
     78 H33         -5.2220    -2.4320    -1.1550 ha         1 929       0.140000
     79 H29         -2.0790    -0.0230     0.4470 ha         1 929       0.120000
     80 HN1         -1.4360    -0.3650    -1.4500 hn         1 929       0.335500
     81 H5          -0.5570    -2.8470    -2.7480 h1         1 929       0.090700
     82 H6           1.1510    -1.4510    -3.7690 h1         1 929       0.039700
     83 H6A         -0.4770    -0.8530    -4.1220 h1         1 929       0.039700
     84 H20          2.2430     0.6010    -3.8830 h1         1 929       0.037700
     85 H20A         0.7650     1.3840    -4.4340 h1         1 929       0.037700
     86 H26          2.4470     3.3240    -4.5450 ha         1 929       0.145500
     87 H24          2.8220     5.5510    -0.8980 ha         1 929       0.149000
     88 H22          1.0820     1.6270    -0.8320 ha         1 929       0.145500
     89 H1           1.7580    -2.0130    -1.5860 h1         1 929       0.080700
     90 HO1          0.0200    -1.6560     0.5600 ho         1 929       0.440000
     91 H3          -0.2720    -3.9160    -0.3480 hc         1 929       0.065200
     92 H3A          0.9010    -4.2950    -1.5890 hc         1 929       0.065200
     93 H2           1.5120    -3.4500     1.2800 hc         1 929       0.057700
     94 H7           1.7710    -6.1640    -0.0950 hc         1 929       0.045367
     95 H7A          2.2630    -5.8030     1.5610 hc         1 929       0.045367
     96 H7B          0.5660    -5.7050     1.1050 hc         1 929       0.045367
     97 HN2          3.0110    -1.9500     0.8590 hn         1 929       0.339500
     98 H8           5.6080    -2.8590    -0.1490 h1         1 929       0.090700
     99 H10          6.0200    -0.7220    -1.2620 hc         1 929       0.041700
    100 H12          3.6030    -2.1030    -2.5020 hc         1 929       0.041200
    101 H12A         4.8020    -1.1180    -3.3210 hc         1 929       0.041200
    102 H12B         5.2660    -2.6700    -2.6210 hc         1 929       0.041200
    103 H11          4.4020     0.7690    -0.1250 hc         1 929       0.041200
    104 H11A         4.1430     0.8060    -1.8570 hc         1 929       0.041200
    105 H11B         3.0520    -0.1160    -0.8380 hc         1 929       0.041200
    106 HN3          7.2650    -1.1270     0.4930 hn         1 929       0.311500
    107 H13          6.8580    -0.0320     3.1850 h1         1 929       0.064700
    108 H13A         8.2670     0.1240     2.1490 h1         1 929       0.064700
    109 H19          5.1090     1.6460     3.1440 ha         1 929       0.115000
    110 H18          4.1710     3.7270     2.2230 ha         1 929       0.117500
    111 H17          5.2010     4.7800     0.2340 ha         1 929       0.113000
    112 H16          7.1920     3.7440    -0.8100 ha         1 929       0.117500
    113 H15          8.1170     1.6520     0.1000 ha         1 929       0.115000
@<TRIPOS>BOND
     1     1     2 2   
     2     2     3 1   
     3     2    12 1   
     4     3     4 1   
     5     3    61 1   
     6     4     5 1   
     7     4    11 1   
     8     4    62 1   
     9     5     6 ar  
    10     5    10 ar  
    11     6     7 ar  
    12     6    63 1   
    13     7     8 ar  
    14     7    64 1   
    15     8     9 ar  
    16     8    65 1   
    17     9    10 ar  
    18     9    66 1   
    19    10    67 1   
    20    11    68 1   
    21    11    69 1   
    22    11    70 1   
    23    12    13 ar  
    24    12    22 ar  
    25    13    14 ar  
    26    13    71 1   
    27    14    15 1   
    28    14    21 ar  
    29    15    16 1   
    30    15    20 1   
    31    16    17 2   
    32    16    18 1   
    33    16    19 2   
    34    18    72 1   
    35    18    73 1   
    36    18    74 1   
    37    20    75 1   
    38    20    76 1   
    39    20    77 1   
    40    21    23 ar  
    41    21    78 1   
    42    22    23 ar  
    43    22    79 1   
    44    23    24 1   
    45    24    25 2   
    46    24    26 1   
    47    26    27 1   
    48    26    80 1   
    49    27    28 1   
    50    27    39 1   
    51    27    81 1   
    52    28    29 1   
    53    28    82 1   
    54    28    83 1   
    55    29    30 1   
    56    30    31 1   
    57    30    84 1   
    58    30    85 1   
    59    31    32 ar  
    60    31    38 ar  
    61    32    33 ar  
    62    32    86 1   
    63    33    34 1   
    64    33    35 ar  
    65    35    36 ar  
    66    35    87 1   
    67    36    37 1   
    68    36    38 ar  
    69    38    88 1   
    70    39    40 1   
    71    39    41 1   
    72    39    89 1   
    73    40    90 1   
    74    41    42 1   
    75    41    91 1   
    76    41    92 1   
    77    42    43 1   
    78    42    44 1   
    79    42    93 1   
    80    43    94 1   
    81    43    95 1   
    82    43    96 1   
    83    44    45 2   
    84    44    46 1   
    85    46    47 1   
    86    46    97 1   
    87    47    48 1   
    88    47    51 1   
    89    47    98 1   
    90    48    49 1   
    91    48    50 1   
    92    48    99 1   
    93    49   100 1   
    94    49   101 1   
    95    49   102 1   
    96    50   103 1   
    97    50   104 1   
    98    50   105 1   
    99    51    52 2   
   100    51    53 1   
   101    53    54 1   
   102    53   106 1   
   103    54    55 1   
   104    54   107 1   
   105    54   108 1   
   106    55    56 ar  
   107    55    60 ar  
   108    56    57 ar  
   109    56   109 1   
   110    57    58 ar  
   111    57   110 1   
   112    58    59 ar  
   113    58   111 1   
   114    59    60 ar  
   115    59   112 1   
   116    60   113 1   
@<TRIPOS>SUBSTRUCTURE
     1 929         1 TEMP              0 ****  ****    0 ROOT
