@<TRIPOS>MOLECULE
929
  113   116     1     0     0
SMALL
No Charge or Current Charge


@<TRIPOS>ATOM
      1 O6          -3.1830     3.1360     2.1310 o          1 929      -0.592100
      2 C34         -2.6390     2.1010     1.7700 c          1 929       0.613700
      3 N4          -1.3430     1.8090     2.1330 ns         1 929      -0.504900
      4 C35         -0.4700     2.6740     2.9200 c3         1 929       0.172000
      5 C36          0.5870     1.8290     3.6240 ca         1 929      -0.118300
      6 C42          0.6820     1.8340     5.0300 ca         1 929      -0.103000
      7 C41          1.6440     1.0410     5.6810 ca         1 929      -0.109500
      8 C40          2.5160     0.2350     4.9300 ca         1 929      -0.099000
      9 C39          2.4290     0.2260     3.5290 ca         1 929      -0.109500
     10 C38          1.4690     1.0190     2.8780 ca         1 929      -0.103000
     11 C37          0.1590     3.7750     2.0430 c3         1 929      -0.101100
     12 C30         -3.3450     1.0750     0.9050 ca         1 929      -0.142600
     13 C31         -4.7120     1.2550     0.6020 ca         1 929      -0.057000
     14 C32         -5.4260     0.3500    -0.2100 ca         1 929       0.261000
     15 N5          -6.8070     0.5980    -0.4640 nh         1 929      -0.785300
     16 S           -7.6080     0.0870    -1.9170 s6         1 929       1.207100
     17 O8          -6.6030     0.0900    -2.9850 o          1 929      -0.529500
     18 C44         -8.1030    -1.6000    -1.5980 c3         1 929      -0.350100
     19 O7          -8.8160     0.9070    -2.0500 o          1 929      -0.529500
     20 C43         -7.6820     1.1700     0.5840 c3         1 929       0.202100
     21 C33         -4.7230    -0.7560    -0.7400 ca         1 929      -0.028000
     22 C29         -2.6750    -0.0500     0.3710 ca         1 929      -0.076000
     23 C27         -3.3560    -0.9720    -0.4580 ca         1 929      -0.145600
     24 C28         -2.6520    -2.1560    -1.0920 c          1 929       0.616700
     25 O5          -3.1850    -2.8540    -1.9440 o          1 929      -0.602100
     26 N1          -1.3600    -2.3900    -0.6840 ns         1 929      -0.499900
     27 C5          -0.3780    -3.2320    -1.3950 c3         1 929       0.088700
     28 C6          -0.0750    -2.6360    -2.8000 c3         1 929       0.150600
     29 O2           0.2830    -1.2550    -2.6030 os         1 929      -0.459000
     30 C20          0.3400    -0.4410    -3.7830 c3         1 929       0.205900
     31 C21          0.4540     1.0120    -3.3340 ca         1 929      -0.032300
     32 C26          1.4700     1.8510    -3.8340 ca         1 929      -0.161000
     33 C25          1.5780     3.1770    -3.3820 ca         1 929       0.200000
     34 F1           2.5610     3.9690    -3.8610 f          1 929      -0.172000
     35 C24          0.6740     3.6840    -2.4390 ca         1 929      -0.200000
     36 C23         -0.3460     2.8580    -1.9500 ca         1 929       0.200000
     37 F2          -1.2280     3.3410    -1.0490 f          1 929      -0.172000
     38 C22         -0.4590     1.5320    -2.3930 ca         1 929      -0.161000
     39 C1           0.9270    -3.4060    -0.5510 c3         1 929       0.148300
     40 O1           0.6280    -3.3930     0.8570 oh         1 929      -0.655000
     41 C3           1.7230    -4.6990    -0.8800 c3         1 929      -0.114400
     42 C2           3.1290    -4.7520    -0.2110 c3         1 929      -0.133700
     43 C7           3.7660    -6.1610    -0.2900 c3         1 929      -0.080100
     44 C4           4.0620    -3.6800    -0.8140 c          1 929       0.604100
     45 O3           4.5600    -3.7910    -1.9260 o          1 929      -0.611100
     46 N2           4.2950    -2.5900    -0.0060 ns         1 929      -0.491900
     47 C8           5.1150    -1.4020    -0.3530 c3         1 929       0.033700
     48 C10          4.3280    -0.3290    -1.1870 c3         1 929      -0.067700
     49 C12          3.8940    -0.8300    -2.5830 c3         1 929      -0.093600
     50 C11          3.1310     0.2800    -0.4190 c3         1 929      -0.093600
     51 C9           5.7380    -0.8020     0.9480 c          1 929       0.590100
     52 O4           5.5500    -1.2840     2.0590 o          1 929      -0.609100
     53 N3           6.5060     0.3300     0.7740 ns         1 929      -0.494900
     54 C13          7.0070     1.1630     1.8660 c3         1 929       0.147300
     55 C14          5.9050     2.0430     2.4480 ca         1 929      -0.128300
     56 C19          5.6250     2.0110     3.8280 ca         1 929      -0.093500
     57 C18          4.6030     2.8140     4.3640 ca         1 929      -0.112500
     58 C17          3.8470     3.6470     3.5230 ca         1 929      -0.103000
     59 C16          4.1190     3.6840     2.1460 ca         1 929      -0.112500
     60 C15          5.1480     2.8890     1.6100 ca         1 929      -0.093500
     61 HN4         -0.9740     0.9180     1.8380 hn         1 929       0.314500
     62 H35         -1.0850     3.1660     3.6860 h1         1 929       0.057700
     63 H42          0.0090     2.4510     5.6220 ha         1 929       0.113000
     64 H41          1.7120     1.0510     6.7660 ha         1 929       0.120500
     65 H40          3.2620    -0.3770     5.4330 ha         1 929       0.126000
     66 H39          3.1060    -0.3940     2.9460 ha         1 929       0.120500
     67 H38          1.4080     1.0030     1.7940 ha         1 929       0.113000
     68 H37         -0.6180     4.4040     1.5940 hc         1 929       0.049700
     69 H37A         0.8090     4.4180     2.6470 hc         1 929       0.049700
     70 H37B         0.7600     3.3410     1.2350 hc         1 929       0.049700
     71 H31         -5.2270     2.1270     0.9940 ha         1 929       0.144000
     72 H44         -8.7710    -1.5830    -0.7320 h1         1 929       0.104367
     73 H44A        -8.6270    -1.9570    -2.4900 h1         1 929       0.104367
     74 H44B        -7.2170    -2.2040    -1.3970 h1         1 929       0.104367
     75 H43         -7.8130     2.2490     0.4300 h1         1 929       0.051700
     76 H43A        -8.6710     0.6910     0.5840 h1         1 929       0.051700
     77 H43B        -7.2510     1.0100     1.5820 h1         1 929       0.051700
     78 H33         -5.2300    -1.4660    -1.3790 ha         1 929       0.140000
     79 H29         -1.6170    -0.1880     0.5710 ha         1 929       0.120000
     80 HN1         -1.0050    -1.8140     0.0650 hn         1 929       0.335500
     81 H5          -0.8270    -4.2240    -1.5380 h1         1 929       0.090700
     82 H6           0.7370    -3.1890    -3.2900 h1         1 929       0.039700
     83 H6A         -0.9710    -2.7170    -3.4280 h1         1 929       0.039700
     84 H20          1.2000    -0.7210    -4.4060 h1         1 929       0.037700
     85 H20A        -0.5740    -0.5570    -4.3820 h1         1 929       0.037700
     86 H26          2.1800     1.4790    -4.5680 ha         1 929       0.145500
     87 H24          0.7610     4.7090    -2.0930 ha         1 929       0.149000
     88 H22         -1.2540     0.9040    -2.0010 ha         1 929       0.145500
     89 H1           1.5700    -2.5450    -0.7800 h1         1 929       0.080700
     90 HO1          0.0150    -4.1390     1.0300 ho         1 929       0.440000
     91 H3           1.1320    -5.5680    -0.5630 hc         1 929       0.065200
     92 H3A          1.8450    -4.7900    -1.9670 hc         1 929       0.065200
     93 H2           2.9890    -4.5180     0.8510 hc         1 929       0.057700
     94 H7           3.9020    -6.4730    -1.3320 hc         1 929       0.045367
     95 H7A          4.7470    -6.1680     0.2020 hc         1 929       0.045367
     96 H7B          3.1320    -6.9020     0.2100 hc         1 929       0.045367
     97 HN2          3.8650    -2.6130     0.9130 hn         1 929       0.339500
     98 H8           5.9670    -1.7400    -0.9570 h1         1 929       0.090700
     99 H10          5.0200     0.4980    -1.3870 hc         1 929       0.041700
    100 H12          3.0950    -1.5750    -2.5090 hc         1 929       0.041200
    101 H12A         3.5220     0.0030    -3.1880 hc         1 929       0.041200
    102 H12B         4.7410    -1.2750    -3.1190 hc         1 929       0.041200
    103 H11          3.4630     0.7420     0.5180 hc         1 929       0.041200
    104 H11A         2.6430     1.0590    -1.0170 hc         1 929       0.041200
    105 H11B         2.3820    -0.4820    -0.1800 hc         1 929       0.041200
    106 HN3          6.6320     0.6590    -0.1750 hn         1 929       0.311500
    107 H13          7.4330     0.5180     2.6460 h1         1 929       0.064700
    108 H13A         7.8150     1.8000     1.4820 h1         1 929       0.064700
    109 H19          6.1950     1.3610     4.4880 ha         1 929       0.115000
    110 H18          4.3890     2.7810     5.4300 ha         1 929       0.117500
    111 H17          3.0500     4.2590     3.9390 ha         1 929       0.113000
    112 H16          3.5340     4.3280     1.4930 ha         1 929       0.117500
    113 H15          5.3510     2.9260     0.5420 ha         1 929       0.115000
@<TRIPOS>BOND
     1     1     2 2   
     2     2     3 1   
     3     2    12 1   
     4     3     4 1   
     5     3    61 1   
     6     4     5 1   
     7     4    11 1   
     8     4    62 1   
     9     5     6 ar  
    10     5    10 ar  
    11     6     7 ar  
    12     6    63 1   
    13     7     8 ar  
    14     7    64 1   
    15     8     9 ar  
    16     8    65 1   
    17     9    10 ar  
    18     9    66 1   
    19    10    67 1   
    20    11    68 1   
    21    11    69 1   
    22    11    70 1   
    23    12    13 ar  
    24    12    22 ar  
    25    13    14 ar  
    26    13    71 1   
    27    14    15 1   
    28    14    21 ar  
    29    15    16 1   
    30    15    20 1   
    31    16    17 2   
    32    16    18 1   
    33    16    19 2   
    34    18    72 1   
    35    18    73 1   
    36    18    74 1   
    37    20    75 1   
    38    20    76 1   
    39    20    77 1   
    40    21    23 ar  
    41    21    78 1   
    42    22    23 ar  
    43    22    79 1   
    44    23    24 1   
    45    24    25 2   
    46    24    26 1   
    47    26    27 1   
    48    26    80 1   
    49    27    28 1   
    50    27    39 1   
    51    27    81 1   
    52    28    29 1   
    53    28    82 1   
    54    28    83 1   
    55    29    30 1   
    56    30    31 1   
    57    30    84 1   
    58    30    85 1   
    59    31    32 ar  
    60    31    38 ar  
    61    32    33 ar  
    62    32    86 1   
    63    33    34 1   
    64    33    35 ar  
    65    35    36 ar  
    66    35    87 1   
    67    36    37 1   
    68    36    38 ar  
    69    38    88 1   
    70    39    40 1   
    71    39    41 1   
    72    39    89 1   
    73    40    90 1   
    74    41    42 1   
    75    41    91 1   
    76    41    92 1   
    77    42    43 1   
    78    42    44 1   
    79    42    93 1   
    80    43    94 1   
    81    43    95 1   
    82    43    96 1   
    83    44    45 2   
    84    44    46 1   
    85    46    47 1   
    86    46    97 1   
    87    47    48 1   
    88    47    51 1   
    89    47    98 1   
    90    48    49 1   
    91    48    50 1   
    92    48    99 1   
    93    49   100 1   
    94    49   101 1   
    95    49   102 1   
    96    50   103 1   
    97    50   104 1   
    98    50   105 1   
    99    51    52 2   
   100    51    53 1   
   101    53    54 1   
   102    53   106 1   
   103    54    55 1   
   104    54   107 1   
   105    54   108 1   
   106    55    56 ar  
   107    55    60 ar  
   108    56    57 ar  
   109    56   109 1   
   110    57    58 ar  
   111    57   110 1   
   112    58    59 ar  
   113    58   111 1   
   114    59    60 ar  
   115    59   112 1   
   116    60   113 1   
@<TRIPOS>SUBSTRUCTURE
     1 929         1 TEMP              0 ****  ****    0 ROOT
