@<TRIPOS>MOLECULE
92A
   77    79     1     0     0
SMALL
abcg2


@<TRIPOS>ATOM
      1 C4          -3.0570     4.1680     0.7980 c3         1 92A      -0.063400
      2 C5          -3.4500     3.3100    -0.3990 c3         1 92A      -0.153400
      3 C6          -3.8160     1.8970    -0.0120 c          1 92A       0.604100
      4 C13         -1.0140    -1.9150    -0.2190 ca         1 92A      -0.077500
      5 C15          1.2230    -1.1970    -0.7900 ca         1 92A      -0.016000
      6 C17          3.6390    -0.6360    -1.0430 c          1 92A       0.606100
      7 C20          6.0110     0.1180    -0.5700 c3         1 92A      -0.020100
      8 C21          7.3430    -0.3140    -0.0240 ca         1 92A      -0.085300
      9 C22          8.2340    -1.0360    -0.8150 ca         1 92A      -0.099000
     10 C24          9.7850    -1.1780     0.9980 ca         1 92A       0.120000
     11 C26          8.9210    -0.4620     1.8100 ca         1 92A      -0.101500
     12 C28          0.7110    -0.5690    -1.9240 ca         1 92A      -0.146500
     13 C30         -5.3220    -0.5550    -1.0390 c          1 92A       0.590100
     14 N32         -5.9770    -1.6290    -0.5590 n          1 92A      -0.400800
     15 C38         -7.4050    -1.7880    -0.7970 c6         1 92A       0.097000
     16 C37         -8.1880    -1.5530     0.4880 c6         1 92A      -0.100400
     17 C35         -7.7020    -2.4650     1.6140 c6         1 92A      -0.058700
     18 C36         -8.4260    -2.1860     2.9220 c3         1 92A      -0.086100
     19 C34         -6.1870    -2.3370     1.7700 c6         1 92A      -0.100400
     20 C33         -5.4770    -2.5590     0.4410 c6         1 92A       0.097000
     21 C9          -3.8260    -0.4250    -0.7100 c3         1 92A       0.039700
     22 N8          -3.4020     0.9380    -0.8630 ns         1 92A      -0.481900
     23 O7          -4.4470     1.6310     1.0020 o          1 92A      -0.610100
     24 C2          -2.6430     5.5930     0.4260 c3         1 92A      -0.062700
     25 C3          -3.7920     6.3820    -0.1960 c3         1 92A      -0.087600
     26 C1          -2.0980     6.3130     1.6550 c3         1 92A      -0.087600
     27 C11         -3.0120    -1.3370    -1.6390 c3         1 92A      -0.035100
     28 C12         -1.5380    -1.2920    -1.3490 ca         1 92A      -0.106300
     29 C29         -0.6520    -0.6250    -2.1840 ca         1 92A      -0.077500
     30 C14          0.3390    -1.8690     0.0600 ca         1 92A      -0.146500
     31 O18          3.5490     0.0890    -2.0180 o          1 92A      -0.579100
     32 C19          4.9710    -0.9900    -0.4170 c3         1 92A      -0.159400
     33 C27          7.7060    -0.0370     1.2910 ca         1 92A      -0.099000
     34 CL1         11.3090    -1.7140     1.6330 cl         1 92A      -0.204000
     35 C23          9.4530    -1.4710    -0.3150 ca         1 92A      -0.101500
     36 H1          -3.8850     4.2100     1.5110 hc         1 92A       0.052700
     37 H2          -2.2240     3.6860     1.3200 hc         1 92A       0.052700
     38 H3          -4.3250     3.7340    -0.9020 hc         1 92A       0.059700
     39 H4          -2.6460     3.3090    -1.1400 hc         1 92A       0.059700
     40 H5          -1.6670    -2.4560     0.4570 ha         1 92A       0.111000
     41 H6           5.6700     1.0150    -0.0500 hc         1 92A       0.066200
     42 H7           6.1120     0.3800    -1.6240 hc         1 92A       0.066200
     43 H8           7.9780    -1.2640    -1.8430 ha         1 92A       0.117500
     44 H9           9.1870    -0.2340     2.8330 ha         1 92A       0.130000
     45 H10          1.3550    -0.0410    -2.6080 ha         1 92A       0.129500
     46 H11         -7.7210    -1.1100    -1.5850 h1         1 92A       0.052700
     47 H12         -7.5750    -2.8090    -1.1550 h1         1 92A       0.052700
     48 H13         -8.0850    -0.5050     0.7890 hc         1 92A       0.054450
     49 H14         -9.2510    -1.7260     0.2970 hc         1 92A       0.054450
     50 H15         -7.9150    -3.5000     1.3160 hc         1 92A       0.039700
     51 H16         -9.5050    -2.3120     2.8130 hc         1 92A       0.035367
     52 H17         -8.0920    -2.8620     3.7120 hc         1 92A       0.035367
     53 H18         -8.2430    -1.1640     3.2630 hc         1 92A       0.035367
     54 H19         -5.9350    -1.3400     2.1470 hc         1 92A       0.054450
     55 H20         -5.8180    -3.0600     2.5010 hc         1 92A       0.054450
     56 H21         -5.6680    -3.5750     0.0820 h1         1 92A       0.052700
     57 H22         -4.4000    -2.4760     0.5600 h1         1 92A       0.052700
     58 H23         -3.6400    -0.7090     0.3270 h1         1 92A       0.084700
     59 H24         -3.0130     1.2210    -1.7490 hn         1 92A       0.318500
     60 H25         -1.8350     5.5290    -0.3130 hc         1 92A       0.041700
     61 H26         -4.6400     6.4410     0.4900 hc         1 92A       0.032700
     62 H27         -3.4840     7.4020    -0.4300 hc         1 92A       0.032700
     63 H28         -4.1460     5.9320    -1.1240 hc         1 92A       0.032700
     64 H29         -1.2440     5.7810     2.0790 hc         1 92A       0.032700
     65 H30         -1.7710     7.3250     1.4120 hc         1 92A       0.032700
     66 H31         -2.8600     6.3900     2.4350 hc         1 92A       0.032700
     67 H32         -3.3790    -2.3600    -1.5360 hc         1 92A       0.060700
     68 H33         -3.2010    -1.0470    -2.6760 hc         1 92A       0.060700
     69 H34         -1.0220    -0.1410    -3.0810 ha         1 92A       0.111000
     70 H35          0.7170    -2.3650     0.9460 ha         1 92A       0.129500
     71 H36          2.7870    -1.7750     0.3810 hn         1 92A       0.150000
     72 H37          4.8470    -1.2480     0.6370 hc         1 92A       0.062700
     73 H38          5.3270    -1.9000    -0.9130 hc         1 92A       0.062700
     74 H39          7.0340     0.5290     1.9260 ha         1 92A       0.117500
     75 H40         10.1330    -2.0290    -0.9440 ha         1 92A       0.130000
     76 N16          2.5760    -1.2230    -0.4360 ns         1 92A      -0.147000
     77 O31         -5.8480     0.2750    -1.7660 o          1 92A      -0.605100
@<TRIPOS>BOND
     1     1     2 1   
     2     1    24 1   
     3     1    36 1   
     4     1    37 1   
     5     2     3 1   
     6     2    38 1   
     7     2    39 1   
     8     3    22 1   
     9     3    23 2   
    10     4    28 ar  
    11     4    30 ar  
    12     4    40 1   
    13     5    12 ar  
    14     5    30 ar  
    15     5    76 1   
    16     6    31 2   
    17     6    32 1   
    18     6    76 1   
    19     7     8 1   
    20     7    32 1   
    21     7    41 1   
    22     7    42 1   
    23     8     9 ar  
    24     8    33 ar  
    25     9    35 ar  
    26     9    43 1   
    27    10    11 ar  
    28    10    34 1   
    29    10    35 ar  
    30    11    33 ar  
    31    11    44 1   
    32    12    29 ar  
    33    12    45 1   
    34    13    14 1   
    35    13    21 1   
    36    13    77 2   
    37    14    15 1   
    38    14    20 1   
    39    15    16 1   
    40    15    46 1   
    41    15    47 1   
    42    16    17 1   
    43    16    48 1   
    44    16    49 1   
    45    17    18 1   
    46    17    19 1   
    47    17    50 1   
    48    18    51 1   
    49    18    52 1   
    50    18    53 1   
    51    19    20 1   
    52    19    54 1   
    53    19    55 1   
    54    20    56 1   
    55    20    57 1   
    56    21    22 1   
    57    21    27 1   
    58    21    58 1   
    59    22    59 1   
    60    24    25 1   
    61    24    26 1   
    62    24    60 1   
    63    25    61 1   
    64    25    62 1   
    65    25    63 1   
    66    26    64 1   
    67    26    65 1   
    68    26    66 1   
    69    27    28 1   
    70    27    67 1   
    71    27    68 1   
    72    28    29 ar  
    73    29    69 1   
    74    30    70 1   
    75    32    72 1   
    76    32    73 1   
    77    33    74 1   
    78    35    75 1   
    79    71    76 1   
@<TRIPOS>SUBSTRUCTURE
     1 92A         1 TEMP              0 ****  ****    0 ROOT
