@<TRIPOS>MOLECULE
92A
   77    79     1     0     0
SMALL
No Charge or Current Charge


@<TRIPOS>ATOM
      1 C4          -0.8180     2.4870     0.2530 c3         1 92A      -0.063400
      2 C5          -2.3260     2.7150     0.5320 c3         1 92A      -0.153400
      3 C6          -3.0190     1.3810     0.8210 c          1 92A       0.604100
      4 C13         -1.4200    -1.5800     0.0980 ca         1 92A      -0.077500
      5 C15          0.7240    -0.8470    -0.8240 ca         1 92A      -0.016000
      6 C17          3.1300    -0.1450    -1.4050 c          1 92A       0.606100
      7 C20          4.9100     1.3390    -0.3560 c3         1 92A      -0.020100
      8 C21          6.2800     1.3910     0.3060 ca         1 92A      -0.085300
      9 C22          7.4440     1.5090    -0.4790 ca         1 92A      -0.099000
     10 C24          8.8160     1.4760     1.5300 ca         1 92A       0.120000
     11 C26          7.6610     1.3560     2.3190 ca         1 92A      -0.101500
     12 C28          0.0680    -0.5110    -2.0280 ca         1 92A      -0.146500
     13 C30         -5.9100    -0.4170    -0.6130 c          1 92A       0.590100
     14 N32         -6.6810    -1.6060    -0.5400 n          1 92A      -0.400800
     15 C38         -8.0920    -1.6510    -1.0100 c6         1 92A       0.097000
     16 C37         -9.0730    -1.6890     0.1850 c6         1 92A      -0.100400
     17 C35         -8.7570    -2.8800     1.1280 c6         1 92A      -0.058700
     18 C36         -9.7040    -2.9070     2.3560 c3         1 92A      -0.086100
     19 C34         -7.2650    -2.8420     1.5550 c6         1 92A      -0.100400
     20 C33         -6.3330    -2.7700     0.3220 c6         1 92A       0.097000
     21 C9          -4.3910    -0.4660    -0.2450 c3         1 92A       0.039700
     22 N8          -3.8040     0.8960    -0.2020 ns         1 92A      -0.481900
     23 O7          -2.8970     0.7980     1.8890 o          1 92A      -0.610100
     24 C2          -0.0320     3.7430    -0.2050 c3         1 92A      -0.062700
     25 C3          -0.0270     4.8680     0.8570 c3         1 92A      -0.087600
     26 C1           1.4100     3.3650    -0.6140 c3         1 92A      -0.087600
     27 C11         -3.5900    -1.3740    -1.2220 c3         1 92A      -0.035100
     28 C12         -2.0740    -1.2240    -1.0940 ca         1 92A      -0.106300
     29 C29         -1.3190    -0.6970    -2.1590 ca         1 92A      -0.077500
     30 C14         -0.0340    -1.3890     0.2310 ca         1 92A      -0.146500
     31 O18          2.9810     0.2240    -2.5640 o          1 92A      -0.579100
     32 C19          4.5050    -0.1050    -0.7280 c3         1 92A      -0.159400
     33 C27          6.3940     1.3130     1.7090 ca         1 92A      -0.099000
     34 Cl1         10.4000     1.5300     2.2940 cl         1 92A      -0.204000
     35 C23          8.7090     1.5520     0.1320 ca         1 92A      -0.101500
     36 H1          -0.3440     2.0650     1.1480 hc         1 92A       0.052700
     37 H2          -0.7320     1.7240    -0.5300 hc         1 92A       0.052700
     38 H3          -2.4350     3.3610     1.4100 hc         1 92A       0.059700
     39 H4          -2.7760     3.1900    -0.3470 hc         1 92A       0.059700
     40 H5          -1.9880    -1.9870     0.9320 ha         1 92A       0.111000
     41 H6           4.1530     1.7660     0.3140 hc         1 92A       0.066200
     42 H7           4.9050     1.9640    -1.2590 hc         1 92A       0.066200
     43 H8           7.3680     1.5660    -1.5630 ha         1 92A       0.117500
     44 H9           7.7460     1.2960     3.4010 ha         1 92A       0.130000
     45 H10          0.6080    -0.0910    -2.8700 ha         1 92A       0.129500
     46 H11         -8.3230    -0.7900    -1.6520 h1         1 92A       0.052700
     47 H12         -8.2320    -2.5530    -1.6240 h1         1 92A       0.052700
     48 H13         -9.0060    -0.7430     0.7400 hc         1 92A       0.054450
     49 H14        -10.1040    -1.7630    -0.1870 hc         1 92A       0.054450
     50 H15         -8.9380    -3.8160     0.5790 hc         1 92A       0.039700
     51 H16        -10.7540    -2.9710     2.0450 hc         1 92A       0.035367
     52 H17         -9.4960    -3.7720     2.9970 hc         1 92A       0.035367
     53 H18         -9.5910    -2.0030     2.9670 hc         1 92A       0.035367
     54 H19         -7.0820    -1.9710     2.1990 hc         1 92A       0.054450
     55 H20         -7.0190    -3.7310     2.1510 hc         1 92A       0.054450
     56 H21         -6.4410    -3.6910    -0.2690 h1         1 92A       0.052700
     57 H22         -5.2920    -2.7360     0.6650 h1         1 92A       0.052700
     58 H23         -4.3220    -0.8920     0.7630 h1         1 92A       0.084700
     59 H24         -3.8860     1.4780    -1.0270 hn         1 92A       0.318500
     60 H25         -0.5280     4.1390    -1.1010 hc         1 92A       0.041700
     61 H26          0.4030     4.5120     1.8010 hc         1 92A       0.032700
     62 H27          0.5680     5.7230     0.5110 hc         1 92A       0.032700
     63 H28         -1.0420     5.2330     1.0540 hc         1 92A       0.032700
     64 H29          1.4040     2.6090    -1.4080 hc         1 92A       0.032700
     65 H30          1.9510     4.2420    -0.9880 hc         1 92A       0.032700
     66 H31          1.9620     2.9600     0.2430 hc         1 92A       0.032700
     67 H32         -3.8680    -2.4230    -1.0730 hc         1 92A       0.060700
     68 H33         -3.8990    -1.1310    -2.2470 hc         1 92A       0.060700
     69 H34         -1.8080    -0.4150    -3.0890 ha         1 92A       0.111000
     70 H35          0.4510    -1.6550     1.1680 ha         1 92A       0.129500
     71 H36          2.4210    -0.9270     0.3210 hn         1 92A       0.150000
     72 H37          4.4930    -0.7080     0.1880 hc         1 92A       0.062700
     73 H38          5.2510    -0.5050    -1.4250 hc         1 92A       0.062700
     74 H39          5.5040     1.2180     2.3260 ha         1 92A       0.117500
     75 H40          9.6060     1.6440    -0.4760 ha         1 92A       0.130000
     76 N16          2.1150    -0.6540    -0.6040 ns         1 92A      -0.147000
     77 O31         -6.4190     0.6210    -1.0270 o          1 92A      -0.605100
@<TRIPOS>BOND
     1     1     2 1   
     2     1    24 1   
     3     1    36 1   
     4     1    37 1   
     5     2     3 1   
     6     2    38 1   
     7     2    39 1   
     8     3    22 1   
     9     3    23 2   
    10     4    28 ar  
    11     4    30 ar  
    12     4    40 1   
    13     5    12 ar  
    14     5    30 ar  
    15     5    76 1   
    16     6    31 2   
    17     6    32 1   
    18     6    76 1   
    19     7     8 1   
    20     7    32 1   
    21     7    41 1   
    22     7    42 1   
    23     8     9 ar  
    24     8    33 ar  
    25     9    35 ar  
    26     9    43 1   
    27    10    11 ar  
    28    10    34 1   
    29    10    35 ar  
    30    11    33 ar  
    31    11    44 1   
    32    12    29 ar  
    33    12    45 1   
    34    13    14 1   
    35    13    21 1   
    36    13    77 2   
    37    14    15 1   
    38    14    20 1   
    39    15    16 1   
    40    15    46 1   
    41    15    47 1   
    42    16    17 1   
    43    16    48 1   
    44    16    49 1   
    45    17    18 1   
    46    17    19 1   
    47    17    50 1   
    48    18    51 1   
    49    18    52 1   
    50    18    53 1   
    51    19    20 1   
    52    19    54 1   
    53    19    55 1   
    54    20    56 1   
    55    20    57 1   
    56    21    22 1   
    57    21    27 1   
    58    21    58 1   
    59    22    59 1   
    60    24    25 1   
    61    24    26 1   
    62    24    60 1   
    63    25    61 1   
    64    25    62 1   
    65    25    63 1   
    66    26    64 1   
    67    26    65 1   
    68    26    66 1   
    69    27    28 1   
    70    27    67 1   
    71    27    68 1   
    72    28    29 ar  
    73    29    69 1   
    74    30    70 1   
    75    32    72 1   
    76    32    73 1   
    77    33    74 1   
    78    35    75 1   
    79    71    76 1   
@<TRIPOS>SUBSTRUCTURE
     1 92A         1 TEMP              0 ****  ****    0 ROOT
