@<TRIPOS>MOLECULE
92B
   32    34     1     0     0
SMALL
bcc


@<TRIPOS>ATOM
      1 N2           2.6600     1.1250    -1.0830 n7         1 92B      -0.809200
      2 C22          3.7650     1.1020    -0.1160 c5         1 92B       0.158800
      3 C23          3.5990    -0.2090     0.6460 c5         1 92B      -0.090400
      4 C8           2.0820    -0.3620     0.7040 c5         1 92B      -0.054500
      5 C21          1.6800     0.1240    -0.6980 c5         1 92B       0.083500
      6 C25          0.2640     0.6500    -0.6570 c          1 92B       0.707500
      7 O7           0.0250     1.8530    -0.7320 o          1 92B      -0.665500
      8 C7           1.5850    -1.7320     1.0200 c2         1 92B      -0.136200
      9 C6           0.4940    -2.2930     0.5110 c2         1 92B      -0.170200
     10 C5          -0.5250    -1.7240    -0.4380 c5         1 92B       0.162900
     11 C4          -1.9320    -2.2110    -0.0610 c5         1 92B      -0.085400
     12 C3          -2.8540    -1.1270    -0.5920 c5         1 92B      -0.072400
     13 C2          -2.0700     0.1510    -0.2970 c5         1 92B      -0.038300
     14 N1          -0.6920    -0.2670    -0.4940 n          1 92B      -0.427800
     15 C1          -2.3320     0.6760     1.1350 c          1 92B       0.931600
     16 O2          -1.4180     0.5830     1.9690 o          1 92B      -0.828300
     17 OXT         -3.4770     1.1440     1.3100 o          1 92B      -0.828300
     18 H1           2.2210     2.0360    -1.1070 hn         1 92B       0.383800
     19 H26          4.7340     1.1620    -0.6160 h1         1 92B       0.028700
     20 H27          3.7080     1.9460     0.5800 h1         1 92B       0.028700
     21 H28          4.0370    -1.0410     0.0870 hc         1 92B       0.039200
     22 H29          4.0650    -0.1860     1.6310 hc         1 92B       0.039200
     23 H30          1.6910     0.3440     1.4480 hc         1 92B       0.101700
     24 H31          1.7220    -0.7330    -1.3840 h1         1 92B       0.063700
     25 H32          2.1790    -2.3170     1.7160 ha         1 92B       0.106000
     26 H33          0.2780    -3.3210     0.7880 ha         1 92B       0.106000
     27 H34         -0.2930    -2.0920    -1.4470 h1         1 92B       0.029700
     28 H42         -2.1320    -3.1990    -0.4750 hc         1 92B       0.044200
     29 H35         -2.0190    -2.2850     1.0260 hc         1 92B       0.044200
     30 H36         -2.9980    -1.2430    -1.6690 hc         1 92B       0.039200
     31 H37         -2.3260     0.9400    -1.0080 h1         1 92B       0.066700
     32 H2          -3.8370    -1.1240    -0.1240 hc         1 92B       0.039200
@<TRIPOS>BOND
     1     1     2 1   
     2     1     5 1   
     3     1    18 1   
     4     2     3 1   
     5     2    19 1   
     6     2    20 1   
     7     3     4 1   
     8     3    21 1   
     9     3    22 1   
    10     4     5 1   
    11     4     8 1   
    12     4    23 1   
    13     5     6 1   
    14     5    24 1   
    15     6     7 2   
    16     6    14 1   
    17     8     9 2   
    18     8    25 1   
    19     9    10 1   
    20     9    26 1   
    21    10    11 1   
    22    10    14 1   
    23    10    27 1   
    24    11    12 1   
    25    11    28 1   
    26    11    29 1   
    27    12    13 1   
    28    12    30 1   
    29    12    32 1   
    30    13    14 1   
    31    13    15 1   
    32    13    31 1   
    33    15    16 1   
    34    15    17 1   
@<TRIPOS>SUBSTRUCTURE
     1 92B         1 TEMP              0 ****  ****    0 ROOT
