@<TRIPOS>MOLECULE
92B
   32    34     1     0     0
SMALL
No Charge or Current Charge


@<TRIPOS>ATOM
      1 N2           2.8280     1.0680    -1.1910 n7         1 92B      -0.864400
      2 C22          3.8250     1.0880    -0.0940 c5         1 92B       0.158800
      3 C23          3.6410    -0.2780     0.6030 c5         1 92B      -0.090400
      4 C8           2.0960    -0.3150     0.6810 c5         1 92B      -0.054500
      5 C21          1.7340     0.1130    -0.7670 c5         1 92B       0.083500
      6 C25          0.2880     0.7260    -0.7240 c          1 92B       0.565000
      7 O7           0.0090     1.9000    -0.9550 o          1 92B      -0.590000
      8 C7           1.6310    -1.7290     1.0150 c2         1 92B      -0.186200
      9 C6           0.5060    -2.3040     0.5350 c2         1 92B      -0.220200
     10 C5          -0.5030    -1.6870    -0.4500 c5         1 92B       0.162900
     11 C4          -1.9040    -2.2170    -0.0270 c5         1 92B      -0.085400
     12 C3          -2.8470    -1.1400    -0.6060 c5         1 92B      -0.072400
     13 C2          -2.1220     0.1740    -0.1970 c5         1 92B      -0.038300
     14 N1          -0.6810    -0.2170    -0.3120 n          1 92B      -0.360800
     15 C1          -2.5910     0.6340     1.2290 c          1 92B       0.721000
     16 O2          -1.8600     0.4780     2.1990 o          1 92B      -0.723000
     17 OXT         -3.6600     1.2210     1.3260 o          1 92B      -0.723000
     18 H1           2.4320     2.0130    -1.3050 hn         1 92B       0.439000
     19 H26          4.8460     1.2360    -0.4720 h1         1 92B       0.028700
     20 H27          3.6020     1.9070     0.6050 h1         1 92B       0.028700
     21 H28          4.0480    -1.0980    -0.0010 hc         1 92B       0.039200
     22 H29          4.1190    -0.3150     1.5880 hc         1 92B       0.039200
     23 H30          1.7270     0.4030     1.4260 hc         1 92B       0.101700
     24 H31          1.7330    -0.7510    -1.4460 h1         1 92B       0.063700
     25 H32          2.2410    -2.3170     1.7040 ha         1 92B       0.156000
     26 H33          0.3060    -3.3240     0.8670 ha         1 92B       0.156000
     27 H34         -0.2780    -1.9520    -1.4920 h1         1 92B       0.029700
     28 H42         -2.1100    -3.2160    -0.4260 hc         1 92B       0.044200
     29 H35         -2.0080    -2.2740     1.0640 hc         1 92B       0.044200
     30 H36         -2.9140    -1.2270    -1.6970 hc         1 92B       0.039200
     31 H37         -2.3800     0.9810    -0.8950 h1         1 92B       0.066700
     32 H2          -3.8680    -1.2110    -0.2130 hc         1 92B       0.039200
@<TRIPOS>BOND
     1     1     2 1   
     2     1     5 1   
     3     1    18 1   
     4     2     3 1   
     5     2    19 1   
     6     2    20 1   
     7     3     4 1   
     8     3    21 1   
     9     3    22 1   
    10     4     5 1   
    11     4     8 1   
    12     4    23 1   
    13     5     6 1   
    14     5    24 1   
    15     6     7 2   
    16     6    14 1   
    17     8     9 2   
    18     8    25 1   
    19     9    10 1   
    20     9    26 1   
    21    10    11 1   
    22    10    14 1   
    23    10    27 1   
    24    11    12 1   
    25    11    28 1   
    26    11    29 1   
    27    12    13 1   
    28    12    30 1   
    29    12    32 1   
    30    13    14 1   
    31    13    15 1   
    32    13    31 1   
    33    15    16 1   
    34    15    17 1   
@<TRIPOS>SUBSTRUCTURE
     1 92B         1 TEMP              0 ****  ****    0 ROOT
