@<TRIPOS>MOLECULE
92C
   28    30     1     0     0
SMALL
abcg2


@<TRIPOS>ATOM
      1 C10          1.3070    -0.2910     0.0840 ca         1 92C      -0.088800
      2 C11         -0.1420    -0.3910    -0.0380 cc         1 92C      -0.186400
      3 C01         -0.4340    -1.8330    -0.2370 c          1 92C       0.584200
      4 C04          1.8270    -1.5860    -0.0360 ca         1 92C       0.063600
      5 C05          3.1820    -1.8410     0.0350 ca         1 92C      -0.139000
      6 C06          4.0390    -0.7620     0.2320 ca         1 92C      -0.072000
      7 C07          3.5250     0.5220     0.3520 ca         1 92C       0.089000
      8 C09          2.1620     0.7800     0.2810 ca         1 92C      -0.055000
      9 C12         -1.0080     0.6450     0.0250 cf         1 92C       0.033800
     10 C13         -2.4320     0.7360    -0.0790 cd         1 92C      -0.233800
     11 C14         -3.1330     1.9650     0.0140 cd         1 92C       0.268900
     12 C18         -3.4500    -0.1950    -0.2770 cc         1 92C      -0.087000
     13 N03          0.7790    -2.4680    -0.2220 ns         1 92C      -0.402100
     14 N15         -4.4260     1.8000    -0.1130 nc         1 92C      -0.525800
     15 N16         -4.5950     0.4840    -0.2880 na         1 92C       0.133800
     16 O02         -1.5060    -2.3920    -0.3860 o          1 92C      -0.554000
     17 CL8          4.6180     1.8500     0.5990 cl         1 92C      -0.206000
     18 H2           3.5760    -2.8440    -0.0600 ha         1 92C       0.125000
     19 H3           5.1060    -0.9290     0.2910 ha         1 92C       0.130000
     20 H4           1.7910     1.7920     0.3750 ha         1 92C       0.130000
     21 H5          -0.5460     1.6160     0.1860 ha         1 92C       0.173000
     22 H7          -2.7130     2.9490     0.1700 h4         1 92C       0.040100
     23 H8          -6.5350     0.1640     0.4080 h1         1 92C       0.060700
     24 H9          -6.3890     0.3880    -1.3460 h1         1 92C       0.060700
     25 H10         -5.8560    -1.1270    -0.5980 h1         1 92C       0.060700
     26 H11         -3.4170    -1.2620    -0.4040 h4         1 92C       0.190000
     27 H12          0.8810    -3.4650    -0.3320 hn         1 92C       0.338500
     28 C17         -5.9240    -0.0510    -0.4660 c3         1 92C       0.068900
@<TRIPOS>BOND
     1     1     2 1   
     2     1     4 ar  
     3     1     8 ar  
     4     2     3 1   
     5     2     9 2   
     6     3    13 1   
     7     3    16 2   
     8     4     5 ar  
     9     4    13 1   
    10     5     6 ar  
    11     5    18 1   
    12     6     7 ar  
    13     6    19 1   
    14     7     8 ar  
    15     7    17 1   
    16     8    20 1   
    17     9    10 1   
    18     9    21 1   
    19    10    11 1   
    20    10    12 2   
    21    11    14 2   
    22    11    22 1   
    23    12    15 1   
    24    12    26 1   
    25    13    27 1   
    26    14    15 1   
    27    15    28 1   
    28    23    28 1   
    29    24    28 1   
    30    25    28 1   
@<TRIPOS>SUBSTRUCTURE
     1 92C         1 TEMP              0 ****  ****    0 ROOT
