@<TRIPOS>MOLECULE
92C
   28    30     1     0     0
SMALL
No Charge or Current Charge


@<TRIPOS>ATOM
      1 C10          1.3150    -0.2940     0.0580 ca         1 92C      -0.088800
      2 C11         -0.1500    -0.3520     0.0630 cc         1 92C      -0.186400
      3 C01         -0.5190    -1.7950     0.1640 c          1 92C       0.584200
      4 C04          1.7970    -1.5880     0.1390 ca         1 92C       0.063600
      5 C05          3.1620    -1.8870     0.1550 ca         1 92C      -0.139000
      6 C06          4.0650    -0.8040     0.0820 ca         1 92C      -0.072000
      7 C07          3.5840     0.5260    -0.0030 ca         1 92C       0.089000
      8 C09          2.1980     0.7960    -0.0170 ca         1 92C      -0.055000
      9 C12         -0.9950     0.7260     0.0100 cf         1 92C       0.033800
     10 C13         -2.4580     0.7920     0.0170 cd         1 92C      -0.233800
     11 C14         -3.2550     1.7620     0.6680 cd         1 92C       0.268900
     12 C18         -3.3280    -0.0300    -0.6470 cc         1 92C      -0.087000
     13 N03          0.6930    -2.4310     0.1970 ns         1 92C      -0.402100
     14 N15         -4.5480     1.5890     0.4760 nc         1 92C      -0.525800
     15 N16         -4.5850     0.4760    -0.3350 na         1 92C       0.133800
     16 O02         -1.6120    -2.3370     0.2220 o          1 92C      -0.554000
     17 Cl8          4.7290     1.8580    -0.0940 cl         1 92C      -0.206000
     18 H2           3.5150    -2.9140     0.2200 ha         1 92C       0.125000
     19 H3           5.1360    -0.9900     0.0910 ha         1 92C       0.130000
     20 H4           1.8360     1.8180    -0.0840 ha         1 92C       0.130000
     21 H5          -0.4950     1.6940     0.0480 ha         1 92C       0.173000
     22 H7          -2.9200     2.5900     1.2800 h4         1 92C       0.040100
     23 H8          -6.5210    -0.2520     0.0700 h1         1 92C       0.060700
     24 H9          -6.3590     0.6740    -1.4530 h1         1 92C       0.060700
     25 H10         -5.7170    -0.9910    -1.3460 h1         1 92C       0.060700
     26 H11         -3.1750    -0.8880    -1.2900 h4         1 92C       0.190000
     27 H12          0.7690    -3.4370     0.2740 hn         1 92C       0.338500
     28 C17         -5.8750    -0.0570    -0.7950 c3         1 92C       0.068900
@<TRIPOS>BOND
     1     1     2 1   
     2     1     4 ar  
     3     1     8 ar  
     4     2     3 1   
     5     2     9 2   
     6     3    13 1   
     7     3    16 2   
     8     4     5 ar  
     9     4    13 1   
    10     5     6 ar  
    11     5    18 1   
    12     6     7 ar  
    13     6    19 1   
    14     7     8 ar  
    15     7    17 1   
    16     8    20 1   
    17     9    10 1   
    18     9    21 1   
    19    10    11 1   
    20    10    12 2   
    21    11    14 2   
    22    11    22 1   
    23    12    15 1   
    24    12    26 1   
    25    13    27 1   
    26    14    15 1   
    27    15    28 1   
    28    23    28 1   
    29    24    28 1   
    30    25    28 1   
@<TRIPOS>SUBSTRUCTURE
     1 92C         1 TEMP              0 ****  ****    0 ROOT
