@<TRIPOS>MOLECULE
92D
   62    65     1     0     0
SMALL
abcg2


@<TRIPOS>ATOM
      1 C1           1.5650    -3.2950     0.7400 ca         1 92D      -0.005300
      2 C2           2.7440    -4.1930     0.9750 c3         1 92D      -0.052800
      3 C3           0.3010    -3.7040     1.1520 ca         1 92D      -0.131000
      4 C11         -6.6630    -1.1880    -0.4580 ca         1 92D      -0.083000
      5 C12         -6.9330     0.1740    -0.3720 ca         1 92D      -0.135000
      6 C13         -5.9030     1.0800    -0.1450 ca         1 92D      -0.036300
      7 C14         -4.6000     0.5930    -0.0070 ca         1 92D      -0.135000
      8 C15          0.5650    -1.2190     0.0040 ca         1 92D      -0.039000
      9 C16          1.6860    -2.0260     0.1520 cp         1 92D      -0.161500
     10 C17          2.9920    -1.5040    -0.3170 cp         1 92D       0.196500
     11 C18          3.4100    -0.2480     0.0620 ca         1 92D      -0.277000
     12 C19          4.6480     0.2090    -0.4390 ca         1 92D       0.392900
     13 C21          6.3510     1.9240    -0.8080 c6         1 92D       0.182300
     14 C22          7.1960     2.7440     0.1470 c6         1 92D       0.140100
     15 C24          5.3670     3.2400     1.4760 c6         1 92D       0.140100
     16 C25          4.4320     2.4330     0.5920 c6         1 92D       0.182300
     17 C27          4.8550    -1.7700    -1.5440 ca         1 92D       0.163900
     18 C29         -6.1380     2.5850    -0.0370 c3         1 92D      -0.001700
     19 C30         -5.3160     3.3080    -1.1130 c3         1 92D      -0.083767
     20 N20          5.1760     1.4110    -0.1220 nh         1 92D      -0.775300
     21 N8          -3.0520    -1.3300     0.0490 ns         1 92D      -0.141000
     22 C31         -7.6080     2.9560    -0.2280 c3         1 92D      -0.083767
     23 C6          -1.8500    -0.7210     0.2030 c          1 92D       0.624700
     24 C5          -0.6980    -1.6510     0.3940 ca         1 92D      -0.167600
     25 N26          5.3540    -0.5830    -1.2560 nb         1 92D      -0.269000
     26 C4          -0.8200    -2.9070     0.9790 ca         1 92D      -0.074000
     27 C32         -5.6920     3.0670     1.3500 c3         1 92D      -0.083767
     28 C10         -5.3760    -1.6640    -0.3200 ca         1 92D      -0.171000
     29 O7          -1.6870     0.4880     0.1800 o          1 92D      -0.586100
     30 C9          -4.3260    -0.7690    -0.0920 ca         1 92D      -0.020000
     31 N28          3.7150    -2.2880    -1.1290 nb         1 92D      -0.215000
     32 O23          6.4490     3.7760     0.7530 os         1 92D      -0.442000
     33 H1           3.1350    -4.5890     0.0390 hc         1 92D       0.052700
     34 H2           3.5630    -3.6600     1.4580 hc         1 92D       0.052700
     35 H3           2.4650    -5.0310     1.6110 hc         1 92D       0.052700
     36 H4           0.1900    -4.6670     1.6350 ha         1 92D       0.118000
     37 H5          -7.4720    -1.8860    -0.6330 ha         1 92D       0.111000
     38 H6          -7.9540     0.5090    -0.4860 ha         1 92D       0.115000
     39 H7          -3.7920     1.2860     0.1630 ha         1 92D       0.146000
     40 H8           0.6750    -0.2410    -0.4480 ha         1 92D       0.137000
     41 H9           2.7970     0.3420     0.7250 ha         1 92D       0.136000
     42 H10          6.0430     2.5400    -1.6620 h1         1 92D       0.063700
     43 H11          6.9410     1.0980    -1.1960 h1         1 92D       0.063700
     44 H12          7.6270     2.0830     0.9120 h1         1 92D       0.055950
     45 H13          8.0170     3.2080    -0.4010 h1         1 92D       0.055950
     46 H14          4.8170     4.0720     1.9160 h1         1 92D       0.055950
     47 H15          5.7290     2.6020     2.2950 h1         1 92D       0.055950
     48 H16          3.6760     1.9880     1.2340 h1         1 92D       0.063700
     49 H17          3.9180     3.0900    -0.1200 h1         1 92D       0.063700
     50 H18          5.4530    -2.3870    -2.2070 h5         1 92D       0.045100
     51 H19         -5.6090     2.9880    -2.1140 hc         1 92D       0.036367
     52 H20         -5.4710     4.3860    -1.0440 hc         1 92D       0.036367
     53 H21         -4.2470     3.1240    -1.0030 hc         1 92D       0.036367
     54 H22         -3.0340    -2.3350    -0.0340 hn         1 92D       0.153000
     55 H23         -8.2470     2.5090     0.5360 hc         1 92D       0.036367
     56 H24         -7.7240     4.0390    -0.1540 hc         1 92D       0.036367
     57 H25         -7.9870     2.6530    -1.2060 hc         1 92D       0.036367
     58 H26         -1.7730    -3.2720     1.3390 ha         1 92D       0.113000
     59 H27         -4.6280     2.8970     1.5150 hc         1 92D       0.036367
     60 H28         -5.8730     4.1390     1.4540 hc         1 92D       0.036367
     61 H29         -6.2400     2.5550     2.1420 hc         1 92D       0.036367
     62 H30         -5.1810    -2.7280    -0.3850 ha         1 92D       0.108000
@<TRIPOS>BOND
     1     1     2 1   
     2     1     3 ar  
     3     1     9 ar  
     4     2    33 1   
     5     2    34 1   
     6     2    35 1   
     7     3    26 ar  
     8     3    36 1   
     9     4     5 ar  
    10     4    28 ar  
    11     4    37 1   
    12     5     6 ar  
    13     5    38 1   
    14     6     7 ar  
    15     6    18 1   
    16     7    30 ar  
    17     7    39 1   
    18     8     9 ar  
    19     8    24 ar  
    20     8    40 1   
    21     9    10 1   
    22    10    11 ar  
    23    10    31 ar  
    24    11    12 ar  
    25    11    41 1   
    26    12    20 1   
    27    12    25 ar  
    28    13    14 1   
    29    13    20 1   
    30    13    42 1   
    31    13    43 1   
    32    14    32 1   
    33    14    44 1   
    34    14    45 1   
    35    15    16 1   
    36    15    32 1   
    37    15    46 1   
    38    15    47 1   
    39    16    20 1   
    40    16    48 1   
    41    16    49 1   
    42    17    25 ar  
    43    17    31 ar  
    44    17    50 1   
    45    18    19 1   
    46    18    22 1   
    47    18    27 1   
    48    19    51 1   
    49    19    52 1   
    50    19    53 1   
    51    21    23 1   
    52    21    30 1   
    53    21    54 1   
    54    22    55 1   
    55    22    56 1   
    56    22    57 1   
    57    23    24 1   
    58    23    29 2   
    59    24    26 ar  
    60    26    58 1   
    61    27    59 1   
    62    27    60 1   
    63    27    61 1   
    64    28    30 ar  
    65    28    62 1   
@<TRIPOS>SUBSTRUCTURE
     1 92D         1 TEMP              0 ****  ****    0 ROOT
