@<TRIPOS>MOLECULE
92D
   62    65     1     0     0
SMALL
No Charge or Current Charge


@<TRIPOS>ATOM
      1 C1           1.5490    -3.5120     0.4090 ca         1 92D      -0.005300
      2 C2           2.6930    -4.4940     0.6480 c3         1 92D      -0.052800
      3 C3           0.2390    -3.9530     0.6710 ca         1 92D      -0.131000
      4 C11         -6.7990    -1.1190     0.3530 ca         1 92D      -0.083000
      5 C12         -7.0410     0.2490     0.1570 ca         1 92D      -0.135000
      6 C13         -5.9690     1.1550    -0.0350 ca         1 92D      -0.036300
      7 C14         -4.6520     0.6350    -0.0240 ca         1 92D      -0.135000
      8 C15          0.6400    -1.3220    -0.1720 ca         1 92D      -0.039000
      9 C16          1.7650    -2.1740    -0.0320 cp         1 92D      -0.161500
     10 C17          3.1240    -1.6260    -0.3460 cp         1 92D       0.196500
     11 C18          3.5370    -0.3570     0.1180 ca         1 92D      -0.277000
     12 C19          4.8110     0.1150    -0.2470 ca         1 92D       0.392900
     13 C21          6.2670     2.1570    -0.6870 c6         1 92D       0.182300
     14 C22          7.0860     3.2140     0.1110 c6         1 92D       0.140100
     15 C24          5.4800     3.2610     1.8920 c6         1 92D       0.140100
     16 C25          4.5750     2.2040     1.1920 c6         1 92D       0.182300
     17 C27          5.1370    -1.8200    -1.4430 ca         1 92D       0.163900
     18 C29         -6.1880     2.6780    -0.2490 c3         1 92D      -0.001700
     19 C30         -5.5890     3.0960    -1.6200 c3         1 92D      -0.083767
     20 N20          5.3150     1.3710     0.1800 nh         1 92D      -0.775300
     21 N8          -3.0980    -1.3140     0.1890 ns         1 92D      -0.141000
     22 C31         -7.6890     3.0860    -0.2420 c3         1 92D      -0.083767
     23 C6          -1.8360    -0.7970    -0.0840 c          1 92D       0.624700
     24 C5          -0.6760    -1.7610     0.0940 ca         1 92D      -0.167600
     25 N26          5.6130    -0.6280    -1.0370 nb         1 92D      -0.269000
     26 C4          -0.8620    -3.0970     0.5160 ca         1 92D      -0.074000
     27 C32         -5.4760     3.4640     0.8860 c3         1 92D      -0.083767
     28 C10         -5.4870    -1.6110     0.3590 ca         1 92D      -0.171000
     29 O7          -1.6470     0.3580    -0.4530 o          1 92D      -0.586100
     30 C9          -4.4010    -0.7430     0.1660 ca         1 92D      -0.020000
     31 N28          3.9370    -2.3490    -1.1390 nb         1 92D      -0.215000
     32 O23          6.2180     4.0360     0.9210 os         1 92D      -0.442000
     33 H1           3.0530    -4.9150    -0.2980 hc         1 92D       0.052700
     34 H2           3.5380    -4.0090     1.1500 hc         1 92D       0.052700
     35 H3           2.3830    -5.3320     1.2830 hc         1 92D       0.052700
     36 H4           0.0670    -4.9730     1.0070 ha         1 92D       0.118000
     37 H5          -7.6340    -1.8010     0.5000 ha         1 92D       0.111000
     38 H6          -8.0740     0.5810     0.1600 ha         1 92D       0.115000
     39 H7          -3.8240     1.3200    -0.1590 ha         1 92D       0.146000
     40 H8           0.8010    -0.3000    -0.5110 ha         1 92D       0.137000
     41 H9           2.8720     0.2280     0.7420 ha         1 92D       0.136000
     42 H10          5.7050     2.6750    -1.4790 h1         1 92D       0.063700
     43 H11          6.9890     1.4960    -1.1880 h1         1 92D       0.063700
     44 H12          7.8140     2.7070     0.7610 h1         1 92D       0.055950
     45 H13          7.6440     3.8550    -0.5860 h1         1 92D       0.055950
     46 H14          4.8610     3.9370     2.4980 h1         1 92D       0.055950
     47 H15          6.1890     2.7570     2.5640 h1         1 92D       0.055950
     48 H16          4.1540     1.5650     1.9810 h1         1 92D       0.063700
     49 H17          3.7350     2.7230     0.7070 h1         1 92D       0.063700
     50 H18          5.7870    -2.4160    -2.0820 h5         1 92D       0.045100
     51 H19         -6.0500     2.5230    -2.4340 hc         1 92D       0.036367
     52 H20         -5.7620     4.1610    -1.8160 hc         1 92D       0.036367
     53 H21         -4.5070     2.9260    -1.6590 hc         1 92D       0.036367
     54 H22         -3.0920    -2.2880     0.4600 hn         1 92D       0.153000
     55 H23         -8.1610     2.8430     0.7180 hc         1 92D       0.036367
     56 H24         -7.8010     4.1660    -0.3990 hc         1 92D       0.036367
     57 H25         -8.2410     2.5790    -1.0430 hc         1 92D       0.036367
     58 H26         -1.8510    -3.4920     0.7360 ha         1 92D       0.113000
     59 H27         -4.3930     3.2980     0.8770 hc         1 92D       0.036367
     60 H28         -5.6440     4.5430     0.7810 hc         1 92D       0.036367
     61 H29         -5.8580     3.1560     1.8670 hc         1 92D       0.036367
     62 H30         -5.3170    -2.6740     0.5120 ha         1 92D       0.108000
@<TRIPOS>BOND
     1     1     2 1   
     2     1     3 ar  
     3     1     9 ar  
     4     2    33 1   
     5     2    34 1   
     6     2    35 1   
     7     3    26 ar  
     8     3    36 1   
     9     4     5 ar  
    10     4    28 ar  
    11     4    37 1   
    12     5     6 ar  
    13     5    38 1   
    14     6     7 ar  
    15     6    18 1   
    16     7    30 ar  
    17     7    39 1   
    18     8     9 ar  
    19     8    24 ar  
    20     8    40 1   
    21     9    10 1   
    22    10    11 ar  
    23    10    31 ar  
    24    11    12 ar  
    25    11    41 1   
    26    12    20 1   
    27    12    25 ar  
    28    13    14 1   
    29    13    20 1   
    30    13    42 1   
    31    13    43 1   
    32    14    32 1   
    33    14    44 1   
    34    14    45 1   
    35    15    16 1   
    36    15    32 1   
    37    15    46 1   
    38    15    47 1   
    39    16    20 1   
    40    16    48 1   
    41    16    49 1   
    42    17    25 ar  
    43    17    31 ar  
    44    17    50 1   
    45    18    19 1   
    46    18    22 1   
    47    18    27 1   
    48    19    51 1   
    49    19    52 1   
    50    19    53 1   
    51    21    23 1   
    52    21    30 1   
    53    21    54 1   
    54    22    55 1   
    55    22    56 1   
    56    22    57 1   
    57    23    24 1   
    58    23    29 2   
    59    24    26 ar  
    60    26    58 1   
    61    27    59 1   
    62    27    60 1   
    63    27    61 1   
    64    28    30 ar  
    65    28    62 1   
@<TRIPOS>SUBSTRUCTURE
     1 92D         1 TEMP              0 ****  ****    0 ROOT
