@<TRIPOS>MOLECULE
92E
   56    58     1     0     0
SMALL
No Charge or Current Charge


@<TRIPOS>ATOM
      1 CAA         -0.5760    -4.5020    -0.0250 c3         1 92E      -0.097100
      2 CAB          3.1170     6.6870     0.3910 c3         1 92E      -0.182100
      3 CAC         -8.3360    -0.3120    -0.1620 c3         1 92E      -0.195100
      4 CAH          5.9310    -4.1450     0.1870 cc         1 92E      -0.198000
      5 CAI          4.5860    -4.3920     0.1390 cd         1 92E       0.149900
      6 CAJ          6.0850    -2.7460     0.2290 cc         1 92E      -0.093000
      7 CAK         -5.7430    -1.8640    -0.1200 ca         1 92E      -0.048000
      8 CAL         -4.5550    -2.6110    -0.1020 ca         1 92E      -0.204000
      9 CAM          2.8090     1.9030     0.2520 ca         1 92E      -0.183000
     10 CAN          0.5620     2.8250     0.2060 ca         1 92E      -0.110000
     11 CAO          0.8950     0.4170     0.1510 ca         1 92E      -0.178000
     12 CAP         -4.4460     0.1930    -0.0250 ca         1 92E      -0.027000
     13 CAQ         -2.0590    -4.0980    -0.0620 c3         1 92E       0.168600
     14 CAW          2.0560     5.5930     0.3280 c          1 92E       0.608100
     15 CAY         -1.5030     1.3530     0.1010 c          1 92E       0.616700
     16 CBA          1.9590     3.0220     0.2550 ca         1 92E       0.005000
     17 CBB          2.2870     0.5960     0.2000 ca         1 92E       0.004000
     18 CBC         -5.7040    -0.4520    -0.0820 ca         1 92E      -0.197600
     19 CBD          0.0100     1.5250     0.1530 ca         1 92E      -0.096600
     20 CBE         -3.2460    -0.5540    -0.0060 ca         1 92E      -0.076000
     21 CBF         -3.3060    -1.9610    -0.0450 ca         1 92E       0.137100
     22 CBG          4.8180    -2.2250     0.2040 cd         1 92E       0.043500
     23 NAS          3.0930    -0.5760     0.1940 ns         1 92E      -0.137000
     24 OAD          0.8620     5.8660     0.2960 o          1 92E      -0.567100
     25 OAF         -2.2580     2.3200     0.1030 o          1 92E      -0.562100
     26 OAG          5.3040     0.1210     0.2810 o          1 92E      -0.574100
     27 OAU         -2.1130    -2.6630    -0.0260 os         1 92E      -0.363100
     28 OAV          3.8600    -3.2210     0.1470 os         1 92E      -0.245000
     29 H1          -0.0990    -4.1360     0.8920 hc         1 92E       0.047700
     30 H2          -0.4800    -5.5940    -0.0510 hc         1 92E       0.047700
     31 H3          -0.0420    -4.0890    -0.8880 hc         1 92E       0.047700
     32 H4           2.6860     7.6940     0.4040 hc         1 92E       0.065033
     33 H5           3.7600     6.5100     1.2620 hc         1 92E       0.065033
     34 H6           3.8150     6.5560    -0.4430 hc         1 92E       0.065033
     35 H7          -8.3640    -0.9710    -1.0370 hc         1 92E       0.059700
     36 H8          -8.4180    -1.0160     0.6740 hc         1 92E       0.059700
     37 H9          -9.1690     0.3990    -0.1700 hc         1 92E       0.059700
     38 H10          6.7330    -4.8780     0.1920 ha         1 92E       0.150000
     39 H11          4.0370    -5.3240     0.0970 h4         1 92E       0.056100
     40 H12          7.0240    -2.2010     0.2730 ha         1 92E       0.161000
     41 H13         -6.6870    -2.4020    -0.1650 ha         1 92E       0.114000
     42 H14         -4.6260    -3.6940    -0.1330 ha         1 92E       0.119000
     43 H15          3.8810     2.0700     0.2910 ha         1 92E       0.145000
     44 H16         -0.1140     3.6750     0.2080 ha         1 92E       0.171000
     45 H17          0.5140    -0.6010     0.1110 ha         1 92E       0.120000
     46 H18         -4.4180     1.2780     0.0050 ha         1 92E       0.163000
     47 H19         -2.5210    -4.4830    -0.9800 h1         1 92E       0.039700
     48 H20         -2.5780    -4.5310     0.8040 h1         1 92E       0.039700
     49 H21          3.5830     4.2690     0.3420 hn         1 92E       0.154000
     50 H22          2.5610    -1.4360     0.1540 hn         1 92E       0.166000
     51 H23         -1.2070    -0.6470     0.0560 hn         1 92E       0.165000
     52 NAT         -1.9500     0.0390     0.0510 ns         1 92E      -0.146000
     53 CAX         -6.9720     0.3800    -0.1000 c          1 92E       0.585700
     54 NAR          2.5730     4.3040     0.3100 ns         1 92E      -0.151000
     55 OAE         -6.9210     1.6040    -0.0660 o          1 92E      -0.517100
     56 CAZ          4.4670    -0.7750     0.2310 c          1 92E       0.549600
@<TRIPOS>BOND
     1     1    13 1   
     2     1    29 1   
     3     1    30 1   
     4     1    31 1   
     5     2    14 1   
     6     2    32 1   
     7     2    33 1   
     8     2    34 1   
     9     3    35 1   
    10     3    36 1   
    11     3    37 1   
    12     3    53 1   
    13     4     5 2   
    14     4     6 1   
    15     4    38 1   
    16     5    28 1   
    17     5    39 1   
    18     6    22 2   
    19     6    40 1   
    20     7     8 ar  
    21     7    18 ar  
    22     7    41 1   
    23     8    21 ar  
    24     8    42 1   
    25     9    16 ar  
    26     9    17 ar  
    27     9    43 1   
    28    10    16 ar  
    29    10    19 ar  
    30    10    44 1   
    31    11    17 ar  
    32    11    19 ar  
    33    11    45 1   
    34    12    18 ar  
    35    12    20 ar  
    36    12    46 1   
    37    13    27 1   
    38    13    47 1   
    39    13    48 1   
    40    14    24 2   
    41    14    54 1   
    42    15    19 1   
    43    15    25 2   
    44    15    52 1   
    45    16    54 1   
    46    17    23 1   
    47    18    53 1   
    48    20    21 ar  
    49    20    52 1   
    50    21    27 1   
    51    22    28 1   
    52    22    56 1   
    53    23    50 1   
    54    23    56 1   
    55    26    56 2   
    56    49    54 1   
    57    51    52 1   
    58    53    55 2   
@<TRIPOS>SUBSTRUCTURE
     1 92E         1 TEMP              0 ****  ****    0 ROOT
