@<TRIPOS>MOLECULE
92E
   56    58     1     0     0
SMALL
abcg2


@<TRIPOS>ATOM
      1 CAA         -0.6080    -4.3500    -0.3590 c3         1 92E      -0.097100
      2 CAB          2.9300     6.4720     0.2660 c3         1 92E      -0.182100
      3 CAC         -8.1750    -0.2140     0.0550 c3         1 92E      -0.195100
      4 CAH          6.0790    -4.0450     0.3740 cc         1 92E      -0.198000
      5 CAI          4.7650    -4.3280     0.5610 cd         1 92E       0.149900
      6 CAJ          6.1570    -2.6350     0.2100 cc         1 92E      -0.093000
      7 CAK         -5.6710    -1.7470    -0.0820 ca         1 92E      -0.048000
      8 CAL         -4.5130    -2.5060    -0.1490 ca         1 92E      -0.204000
      9 CAM          2.7390     1.7570     0.2610 ca         1 92E      -0.183000
     10 CAN          0.4950     2.6620     0.2950 ca         1 92E      -0.110000
     11 CAO          0.8530     0.2700     0.3290 ca         1 92E      -0.178000
     12 CAP         -4.3720     0.2710    -0.1880 ca         1 92E      -0.027000
     13 CAQ         -2.0570    -3.9340    -0.2820 c3         1 92E       0.168600
     14 CAW          1.9270     5.3480     0.2650 c          1 92E       0.608100
     15 CAY         -1.4810     1.1700     0.3810 c          1 92E       0.616700
     16 CBA          1.8730     2.8560     0.2550 ca         1 92E       0.005000
     17 CBB          2.2350     0.4650     0.3080 ca         1 92E       0.004000
     18 CBC         -5.6200    -0.3580    -0.1000 ca         1 92E      -0.197600
     19 CBD          0.0020     1.3620     0.3160 ca         1 92E      -0.096600
     20 CBE         -3.2100    -0.4690    -0.2380 ca         1 92E      -0.076000
     21 CBF         -3.2760    -1.8790    -0.2190 ca         1 92E       0.137100
     22 CBG          4.8830    -2.1740     0.3100 cd         1 92E       0.043500
     23 NAS          3.0220    -0.6850     0.3570 ns         1 92E      -0.137000
     24 OAD          0.7290     5.5480     0.3330 o          1 92E      -0.567100
     25 OAF         -2.1970     1.9210     1.0180 o          1 92E      -0.562100
     26 OAG          5.1350     0.1280     0.0400 o          1 92E      -0.574100
     27 OAU         -2.1000    -2.5090    -0.2780 os         1 92E      -0.363100
     28 OAV          4.0330    -3.2030     0.5230 os         1 92E      -0.245000
     29 H1          -0.0420    -3.9790     0.4960 hc         1 92E       0.047700
     30 H2          -0.5440    -5.4370    -0.3560 hc         1 92E       0.047700
     31 H3          -0.1380    -3.9890    -1.2740 hc         1 92E       0.047700
     32 H4           2.5410     7.3120    -0.3060 hc         1 92E       0.065033
     33 H5           3.0790     6.8130     1.2920 hc         1 92E       0.065033
     34 H6           3.9000     6.1910    -0.1390 hc         1 92E       0.065033
     35 H7          -8.3290    -0.8870    -0.7890 hc         1 92E       0.059700
     36 H8          -8.2280    -0.8200     0.9610 hc         1 92E       0.059700
     37 H9          -8.9800     0.5150     0.0740 hc         1 92E       0.059700
     38 H10          6.8890    -4.7530     0.3560 ha         1 92E       0.150000
     39 H11          4.2310    -5.2490     0.7290 h4         1 92E       0.056100
     40 H12          7.0410    -2.0430     0.0400 ha         1 92E       0.161000
     41 H13         -6.6160    -2.2700    -0.0170 ha         1 92E       0.114000
     42 H14         -4.5910    -3.5840    -0.1340 ha         1 92E       0.119000
     43 H15          3.8040     1.9270     0.2380 ha         1 92E       0.145000
     44 H16         -0.1890     3.4930     0.2970 ha         1 92E       0.171000
     45 H17          0.4600    -0.7390     0.3960 ha         1 92E       0.120000
     46 H18         -4.3230     1.3490    -0.2250 ha         1 92E       0.163000
     47 H19         -2.6170    -4.3210    -1.1390 h1         1 92E       0.039700
     48 H20         -2.5240    -4.3210     0.6290 h1         1 92E       0.039700
     49 H21          3.4930     4.0800     0.1650 hn         1 92E       0.154000
     50 H22          2.5030    -1.5410     0.4880 hn         1 92E       0.166000
     51 H23         -1.2530    -0.4170    -0.8550 hn         1 92E       0.165000
     52 NAT         -1.9320     0.1020    -0.3200 ns         1 92E      -0.146000
     53 CAX         -6.8430     0.4800    -0.0430 c          1 92E       0.585700
     54 NAR          2.4860     4.1070     0.2100 ns         1 92E      -0.151000
     55 OAE         -6.7670     1.6920    -0.0730 o          1 92E      -0.517100
     56 CAZ          4.3690    -0.8030     0.2220 c          1 92E       0.549600
@<TRIPOS>BOND
     1     1    13 1   
     2     1    29 1   
     3     1    30 1   
     4     1    31 1   
     5     2    14 1   
     6     2    32 1   
     7     2    33 1   
     8     2    34 1   
     9     3    35 1   
    10     3    36 1   
    11     3    37 1   
    12     3    53 1   
    13     4     5 2   
    14     4     6 1   
    15     4    38 1   
    16     5    28 1   
    17     5    39 1   
    18     6    22 2   
    19     6    40 1   
    20     7     8 ar  
    21     7    18 ar  
    22     7    41 1   
    23     8    21 ar  
    24     8    42 1   
    25     9    16 ar  
    26     9    17 ar  
    27     9    43 1   
    28    10    16 ar  
    29    10    19 ar  
    30    10    44 1   
    31    11    17 ar  
    32    11    19 ar  
    33    11    45 1   
    34    12    18 ar  
    35    12    20 ar  
    36    12    46 1   
    37    13    27 1   
    38    13    47 1   
    39    13    48 1   
    40    14    24 2   
    41    14    54 1   
    42    15    19 1   
    43    15    25 2   
    44    15    52 1   
    45    16    54 1   
    46    17    23 1   
    47    18    53 1   
    48    20    21 ar  
    49    20    52 1   
    50    21    27 1   
    51    22    28 1   
    52    22    56 1   
    53    23    50 1   
    54    23    56 1   
    55    26    56 2   
    56    49    54 1   
    57    51    52 1   
    58    53    55 2   
@<TRIPOS>SUBSTRUCTURE
     1 92E         1 TEMP              0 ****  ****    0 ROOT
