@<TRIPOS>MOLECULE
92G
   21    22     1     0     0
SMALL
No Charge or Current Charge


@<TRIPOS>ATOM
      1 O7           4.8630     0.3110     0.1190 oh         1 92G      -0.532100
      2 C5           1.3100     1.2340     0.2670 ca         1 92G      -0.044500
      3 C6           2.7120     1.3380     0.2820 ca         1 92G      -0.185000
      4 C1           3.5050     0.1980     0.1060 ca         1 92G       0.147100
      5 C3           1.4970    -1.1600    -0.1070 ca         1 92G      -0.044500
      6 C2           2.8990    -1.0500    -0.0930 ca         1 92G      -0.185000
      7 C4           0.6830    -0.0210     0.0940 ca         1 92G      -0.161500
      8 C8          -0.7850    -0.1110     0.0450 cc         1 92G       0.400500
      9 C10         -2.8230     0.5770    -0.1970 cd         1 92G       0.701300
     10 C12         -1.4150    -1.2970     0.3450 cd         1 92G      -0.279000
     11 S11         -3.1560    -1.0950     0.2320 ss         1 92G      -0.110400
     12 N9          -1.5810     0.9660    -0.2510 nc         1 92G      -0.732000
     13 N13         -3.7500     1.5060    -0.4490 nv         1 92G      -1.043900
     14 HO7          5.2480    -0.5800    -0.0200 ho         1 92G       0.464000
     15 H6           3.1810     2.3080     0.4270 ha         1 92G       0.120500
     16 H3           1.0540    -2.1370    -0.2860 ha         1 92G       0.123500
     17 H2           3.5060    -1.9400    -0.2440 ha         1 92G       0.120500
     18 H12         -0.9830    -2.2460     0.6340 h4         1 92G       0.159000
     19 HN13        -4.6800     1.3340    -0.0860 hn         1 92G       0.479000
     20 HN1A        -3.4210     2.4630    -0.4190 hn         1 92G       0.479000
     21 H5           0.7130     2.1330     0.4030 ha         1 92G       0.123500
@<TRIPOS>BOND
     1     1     4 1   
     2     1    14 1   
     3     2     3 ar  
     4     2     7 ar  
     5     2    21 1   
     6     3     4 ar  
     7     3    15 1   
     8     4     6 ar  
     9     5     6 ar  
    10     5     7 ar  
    11     5    16 1   
    12     6    17 1   
    13     7     8 1   
    14     8    10 2   
    15     8    12 1   
    16     9    11 1   
    17     9    12 2   
    18     9    13 1   
    19    10    11 1   
    20    10    18 1   
    21    13    19 1   
    22    13    20 1   
@<TRIPOS>SUBSTRUCTURE
     1 92G         1 TEMP              0 ****  ****    0 ROOT
