@<TRIPOS>MOLECULE
92G
   21    22     1     0     0
SMALL
abcg2


@<TRIPOS>ATOM
      1 O7           4.8380     0.3860     0.1520 oh         1 92G      -0.532100
      2 C5           1.3100     1.1850     0.0840 ca         1 92G      -0.044500
      3 C6           2.6870     1.3270     0.1210 ca         1 92G      -0.185000
      4 C1           3.5050     0.2010     0.1150 ca         1 92G       0.147100
      5 C3           1.5430    -1.1920     0.0310 ca         1 92G      -0.044500
      6 C2           2.9200    -1.0640     0.0680 ca         1 92G      -0.185000
      7 C4           0.7070    -0.0740     0.0410 ca         1 92G      -0.161500
      8 C8          -0.7550    -0.1970     0.0080 cc         1 92G       0.400500
      9 C10         -2.7800     0.6740    -0.1060 cd         1 92G       0.701300
     10 C12         -1.4610    -1.3570     0.0710 cd         1 92G      -0.279000
     11 S11         -3.1550    -1.0250    -0.0020 ss         1 92G      -0.110400
     12 N9          -1.5140     0.9440    -0.0880 nc         1 92G      -0.732000
     13 N13         -3.7580     1.5970    -0.2550 nv         1 92G      -1.043900
     14 HO7          5.2960    -0.4620     0.1510 ho         1 92G       0.464000
     15 H6           3.1310     2.3140     0.1560 ha         1 92G       0.120500
     16 H3           1.1250    -2.1900    -0.0120 ha         1 92G       0.123500
     17 H2           3.5410    -1.9530     0.0560 ha         1 92G       0.120500
     18 H12         -1.1070    -2.3710     0.1610 h4         1 92G       0.159000
     19 HN13        -4.6920     1.3650     0.0370 hn         1 92G       0.479000
     20 HN1A        -3.4920     2.5530    -0.0760 hn         1 92G       0.479000
     21 H5           0.6900     2.0710     0.0890 ha         1 92G       0.123500
@<TRIPOS>BOND
     1     1     4 1   
     2     1    14 1   
     3     2     3 ar  
     4     2     7 ar  
     5     2    21 1   
     6     3     4 ar  
     7     3    15 1   
     8     4     6 ar  
     9     5     6 ar  
    10     5     7 ar  
    11     5    16 1   
    12     6    17 1   
    13     7     8 1   
    14     8    10 2   
    15     8    12 1   
    16     9    11 1   
    17     9    12 2   
    18     9    13 1   
    19    10    11 1   
    20    10    18 1   
    21    13    19 1   
    22    13    20 1   
@<TRIPOS>SUBSTRUCTURE
     1 92G         1 TEMP              0 ****  ****    0 ROOT
