@<TRIPOS>MOLECULE
92H
   71    75     1     0     0
SMALL
bcc


@<TRIPOS>ATOM
      1 CAA          2.3560     3.9720     0.6250 c3         1 92H       0.150100
      2 CAC          1.5650     1.9160    -0.3140 c3         1 92H       0.145800
      3 CAD          1.8080     0.9220    -1.4470 c3         1 92H       0.101000
      4 CAF         -0.0170    -0.7650    -1.3480 c3         1 92H       0.097000
      5 CAG         -0.8960    -0.5930    -0.1080 c6         1 92H      -0.079700
      6 CAH         -0.4680    -1.4550     1.0720 c6         1 92H      -0.070400
      7 CAI         -1.4660    -1.3010     2.2100 c6         1 92H      -0.076400
      8 CAJ         -2.8820    -1.5870     1.7380 c6         1 92H       0.164800
      9 CAL         -4.6310    -0.9310     0.2240 c5         1 92H       0.177500
     10 CAM         -5.6430    -0.6640     1.3560 c5         1 92H      -0.033100
     11 CAN         -6.8840    -0.2590     0.6160 ca         1 92H      -0.087800
     12 CAO         -8.1960    -0.2200     1.0600 ca         1 92H      -0.114500
     13 CAP         -9.1920     0.2080     0.1870 ca         1 92H      -0.130000
     14 CAQ         -8.8740     0.5910    -1.1120 ca         1 92H      -0.130000
     15 CAR         -7.5560     0.5500    -1.5560 ca         1 92H      -0.114500
     16 CAS         -6.5660     0.1230    -0.6850 ca         1 92H      -0.087800
     17 CAT         -5.0880     0.0020    -0.9160 c5         1 92H      -0.033100
     18 CAU         -2.3380    -0.9150    -0.4890 c6         1 92H       0.167800
     19 CAV          1.5130     3.9500    -1.6000 c3         1 92H       0.150100
     20 CAW          2.2690    -1.4420    -0.9330 c          1 92H       0.680700
     21 CAX          3.7000    -1.0760    -0.6840 ca         1 92H      -0.137600
     22 CAZ          4.0770    -0.4230     0.4600 ca         1 92H      -0.081000
     23 CBA          5.4400    -0.1690     0.7360 ca         1 92H      -0.041000
     24 CBB          6.4220    -0.5930    -0.1960 ca         1 92H      -0.026000
     25 CBC          6.0060    -1.2760    -1.3630 ca         1 92H      -0.119000
     26 CBD          4.6840    -1.5260    -1.5950 ca         1 92H      -0.095000
     27 CBE          5.8490     0.5020     1.9120 ca         1 92H      -0.111000
     28 CBF          7.1750     0.7450     2.1470 ca         1 92H      -0.127000
     29 CBG          8.1520     0.3270     1.2190 ca         1 92H      -0.120000
     30 CBH          7.7850    -0.3270     0.0740 ca         1 92H      -0.118000
     31 NAB          2.2070     3.1880    -0.5820 n3         1 92H      -0.715600
     32 NAE          1.3890    -0.4410    -1.1540 n          1 92H      -0.471800
     33 NAK         -3.2520    -0.7240     0.6250 n3         1 92H      -0.713600
     34 OAY          1.9580    -2.6260    -0.9210 o          1 92H      -0.593100
     35 H1           2.9310     3.4180     1.3690 h1         1 92H       0.031367
     36 H2           2.8970     4.8930     0.4030 h1         1 92H       0.031367
     37 H3           1.3950     4.2560     1.0830 h1         1 92H       0.031367
     38 H4           0.4850     2.0370    -0.1280 h1         1 92H       0.038200
     39 H5           1.9910     1.5050     0.6040 h1         1 92H       0.038200
     40 H6           1.2820     1.2340    -2.3520 h1         1 92H       0.058200
     41 H7           2.8690     0.9360    -1.6900 h1         1 92H       0.058200
     42 H8          -0.0960    -1.7920    -1.7060 h1         1 92H       0.055700
     43 H9          -0.3970    -0.1220    -2.1460 h1         1 92H       0.055700
     44 H10         -0.8700     0.4570     0.2050 hc         1 92H       0.057700
     45 H11         -0.4260    -2.5030     0.7580 hc         1 92H       0.050200
     46 H12          0.5360    -1.1850     1.4100 hc         1 92H       0.050200
     47 H13         -1.2180    -1.9760     3.0320 hc         1 92H       0.045700
     48 H14         -1.4200    -0.2830     2.6070 hc         1 92H       0.045700
     49 H15         -2.9680    -2.6530     1.4590 h1         1 92H       0.031700
     50 H16         -3.5750    -1.4250     2.5640 h1         1 92H       0.031700
     51 H17         -4.7850    -1.9720    -0.1170 h1         1 92H       0.026700
     52 H18         -5.7980    -1.5240     2.0090 hc         1 92H       0.059450
     53 H19         -5.2870     0.1610     1.9840 hc         1 92H       0.059450
     54 H20         -8.4490    -0.5240     2.0690 ha         1 92H       0.130500
     55 H21        -10.2230     0.2360     0.5180 ha         1 92H       0.129000
     56 H22         -9.6590     0.9150    -1.7840 ha         1 92H       0.129000
     57 H23         -7.3120     0.8430    -2.5700 ha         1 92H       0.130500
     58 H24         -4.6040     0.9800    -0.8140 hc         1 92H       0.059450
     59 H25         -4.8440    -0.3770    -1.9090 hc         1 92H       0.059450
     60 H26         -2.6370    -0.2640    -1.3130 h1         1 92H       0.031200
     61 H27         -2.3850    -1.9520    -0.8730 h1         1 92H       0.031200
     62 H28          0.4870     4.2200    -1.3060 h1         1 92H       0.031367
     63 H29          2.0550     4.8750    -1.8050 h1         1 92H       0.031367
     64 H30          1.4560     3.3960    -2.5370 h1         1 92H       0.031367
     65 H31          3.3330    -0.0980     1.1780 ha         1 92H       0.134000
     66 H32          6.7540    -1.6060    -2.0740 ha         1 92H       0.134000
     67 H33          4.3810    -2.0570    -2.4890 ha         1 92H       0.141000
     68 H34          5.0990     0.8210     2.6250 ha         1 92H       0.130000
     69 H35          7.4810     1.2590     3.0490 ha         1 92H       0.131000
     70 H36          9.1970     0.5250     1.4190 ha         1 92H       0.131000
     71 H37          8.5350    -0.6480    -0.6380 ha         1 92H       0.132000
@<TRIPOS>BOND
     1     1    31 1   
     2     1    35 1   
     3     1    36 1   
     4     1    37 1   
     5     2     3 1   
     6     2    31 1   
     7     2    38 1   
     8     2    39 1   
     9     3    32 1   
    10     3    40 1   
    11     3    41 1   
    12     4     5 1   
    13     4    32 1   
    14     4    42 1   
    15     4    43 1   
    16     5     6 1   
    17     5    18 1   
    18     5    44 1   
    19     6     7 1   
    20     6    45 1   
    21     6    46 1   
    22     7     8 1   
    23     7    47 1   
    24     7    48 1   
    25     8    33 1   
    26     8    49 1   
    27     8    50 1   
    28     9    10 1   
    29     9    17 1   
    30     9    33 1   
    31     9    51 1   
    32    10    11 1   
    33    10    52 1   
    34    10    53 1   
    35    11    12 ar  
    36    11    16 ar  
    37    12    13 ar  
    38    12    54 1   
    39    13    14 ar  
    40    13    55 1   
    41    14    15 ar  
    42    14    56 1   
    43    15    16 ar  
    44    15    57 1   
    45    16    17 1   
    46    17    58 1   
    47    17    59 1   
    48    18    33 1   
    49    18    60 1   
    50    18    61 1   
    51    19    31 1   
    52    19    62 1   
    53    19    63 1   
    54    19    64 1   
    55    20    21 1   
    56    20    32 1   
    57    20    34 2   
    58    21    22 ar  
    59    21    26 ar  
    60    22    23 ar  
    61    22    65 1   
    62    23    24 ar  
    63    23    27 ar  
    64    24    25 ar  
    65    24    30 ar  
    66    25    26 ar  
    67    25    66 1   
    68    26    67 1   
    69    27    28 ar  
    70    27    68 1   
    71    28    29 ar  
    72    28    69 1   
    73    29    30 ar  
    74    29    70 1   
    75    30    71 1   
@<TRIPOS>SUBSTRUCTURE
     1 92H         1 TEMP              0 ****  ****    0 ROOT
