@<TRIPOS>MOLECULE
92H
   71    75     1     0     0
SMALL
No Charge or Current Charge


@<TRIPOS>ATOM
      1 CAA          1.2360     4.4480     0.0710 c3         1 92H       0.150100
      2 CAC          1.2640     2.1410    -0.7850 c3         1 92H       0.145800
      3 CAD          1.9720     1.0640    -1.6490 c3         1 92H       0.101000
      4 CAF          0.1140    -0.6330    -1.6350 c3         1 92H       0.097000
      5 CAG         -0.7630    -0.7710    -0.3580 c6         1 92H      -0.079700
      6 CAH         -0.2850    -1.9210     0.5650 c6         1 92H      -0.070400
      7 CAI         -1.2240    -2.0460     1.7820 c6         1 92H      -0.076400
      8 CAJ         -2.6980    -2.1950     1.3360 c6         1 92H       0.164800
      9 CAL         -4.6130    -1.0740     0.1470 c5         1 92H       0.177500
     10 CAM         -5.4490    -1.0070     1.4910 c5         1 92H      -0.033100
     11 CAN         -6.6590    -0.2410     1.0230 ca         1 92H      -0.087800
     12 CAO         -7.9150    -0.1800     1.6470 ca         1 92H      -0.096500
     13 CAP         -8.9280     0.6030     1.0600 ca         1 92H      -0.112000
     14 CAQ         -8.6740     1.3130    -0.1320 ca         1 92H      -0.112000
     15 CAR         -7.4050     1.2430    -0.7410 ca         1 92H      -0.096500
     16 CAS         -6.4100     0.4540    -0.1430 ca         1 92H      -0.087800
     17 CAT         -4.9970     0.2550    -0.6270 c5         1 92H      -0.033100
     18 CAU         -2.2560    -0.9650    -0.7330 c6         1 92H       0.167800
     19 CAV          1.6520     4.0610    -2.3170 c3         1 92H       0.150100
     20 CAW          2.5060    -1.3760    -1.4400 c          1 92H       0.613700
     21 CAX          3.8610    -1.1590    -0.7960 ca         1 92H      -0.137600
     22 CAZ          4.0220    -0.3050     0.3200 ca         1 92H      -0.063000
     23 CBA          5.2850    -0.1330     0.9160 ca         1 92H      -0.041000
     24 CBB          6.4030    -0.8300     0.4100 ca         1 92H      -0.026000
     25 CBC          6.2460    -1.6990    -0.6830 ca         1 92H      -0.101000
     26 CBD          4.9830    -1.8680    -1.2770 ca         1 92H      -0.077000
     27 CBE          5.4370     0.7290     2.0190 ca         1 92H      -0.093000
     28 CBF          6.7000     0.8980     2.6130 ca         1 92H      -0.109000
     29 CBG          7.8140     0.2060     2.1070 ca         1 92H      -0.102000
     30 CBH          7.6660    -0.6580     1.0080 ca         1 92H      -0.100000
     31 NAB          1.7910     3.5220    -0.9420 n3         1 92H      -0.715600
     32 NAE          1.5460    -0.3350    -1.3600 n          1 92H      -0.404800
     33 NAK         -3.1430    -1.0600     0.4690 n3         1 92H      -0.713600
     34 OAY          2.2250    -2.4650    -1.9260 o          1 92H      -0.593100
     35 H1           1.4260     4.0720     1.0860 h1         1 92H       0.031367
     36 H2           1.7000     5.4400    -0.0130 h1         1 92H       0.031367
     37 H3           0.1510     4.5630    -0.0560 h1         1 92H       0.031367
     38 H4           0.1900     2.1280    -1.0130 h1         1 92H       0.038200
     39 H5           1.3700     1.8340     0.2650 h1         1 92H       0.038200
     40 H6           1.7600     1.2660    -2.7070 h1         1 92H       0.058200
     41 H7           3.0550     1.1740    -1.5250 h1         1 92H       0.058200
     42 H8           0.0190    -1.5540    -2.2250 h1         1 92H       0.055700
     43 H9          -0.3060     0.1710    -2.2530 h1         1 92H       0.055700
     44 H10         -0.6730     0.1760     0.1900 hc         1 92H       0.057700
     45 H11         -0.2690    -2.8680     0.0090 hc         1 92H       0.050200
     46 H12          0.7420    -1.7380     0.9110 hc         1 92H       0.050200
     47 H13         -0.9320    -2.9090     2.3940 hc         1 92H       0.045700
     48 H14         -1.1240    -1.1580     2.4220 hc         1 92H       0.045700
     49 H15         -2.8150    -3.1480     0.7980 h1         1 92H       0.031700
     50 H16         -3.3120    -2.2660     2.2450 h1         1 92H       0.031700
     51 H17         -4.8990    -1.9580    -0.4400 h1         1 92H       0.026700
     52 H18         -5.6960    -2.0030     1.8740 hc         1 92H       0.059450
     53 H19         -4.9240    -0.4600     2.2820 hc         1 92H       0.059450
     54 H20         -8.1030    -0.7280     2.5680 ha         1 92H       0.112500
     55 H21         -9.9090     0.6610     1.5280 ha         1 92H       0.111000
     56 H22         -9.4580     1.9180    -0.5820 ha         1 92H       0.111000
     57 H23         -7.2010     1.7900    -1.6580 ha         1 92H       0.112500
     58 H24         -4.3650     1.1020    -0.3390 hc         1 92H       0.059450
     59 H25         -4.9310     0.1340    -1.7130 hc         1 92H       0.059450
     60 H26         -2.5490    -0.1190    -1.3690 h1         1 92H       0.031200
     61 H27         -2.3590    -1.8730    -1.3470 h1         1 92H       0.031200
     62 H28          0.5960     4.1020    -2.6160 h1         1 92H       0.031367
     63 H29          2.0650     5.0770    -2.3780 h1         1 92H       0.031367
     64 H30          2.1950     3.4410    -3.0430 h1         1 92H       0.031367
     65 H31          3.1640     0.2160     0.7370 ha         1 92H       0.116000
     66 H32          7.1010    -2.2460    -1.0750 ha         1 92H       0.116000
     67 H33          4.8800    -2.5460    -2.1210 ha         1 92H       0.123000
     68 H34          4.5800     1.2690     2.4160 ha         1 92H       0.112000
     69 H35          6.8150     1.5660     3.4640 ha         1 92H       0.113000
     70 H36          8.7910     0.3380     2.5670 ha         1 92H       0.113000
     71 H37          8.5320    -1.1920     0.6240 ha         1 92H       0.114000
@<TRIPOS>BOND
     1     1    31 1   
     2     1    35 1   
     3     1    36 1   
     4     1    37 1   
     5     2     3 1   
     6     2    31 1   
     7     2    38 1   
     8     2    39 1   
     9     3    32 1   
    10     3    40 1   
    11     3    41 1   
    12     4     5 1   
    13     4    32 1   
    14     4    42 1   
    15     4    43 1   
    16     5     6 1   
    17     5    18 1   
    18     5    44 1   
    19     6     7 1   
    20     6    45 1   
    21     6    46 1   
    22     7     8 1   
    23     7    47 1   
    24     7    48 1   
    25     8    33 1   
    26     8    49 1   
    27     8    50 1   
    28     9    10 1   
    29     9    17 1   
    30     9    33 1   
    31     9    51 1   
    32    10    11 1   
    33    10    52 1   
    34    10    53 1   
    35    11    12 ar  
    36    11    16 ar  
    37    12    13 ar  
    38    12    54 1   
    39    13    14 ar  
    40    13    55 1   
    41    14    15 ar  
    42    14    56 1   
    43    15    16 ar  
    44    15    57 1   
    45    16    17 1   
    46    17    58 1   
    47    17    59 1   
    48    18    33 1   
    49    18    60 1   
    50    18    61 1   
    51    19    31 1   
    52    19    62 1   
    53    19    63 1   
    54    19    64 1   
    55    20    21 1   
    56    20    32 1   
    57    20    34 2   
    58    21    22 ar  
    59    21    26 ar  
    60    22    23 ar  
    61    22    65 1   
    62    23    24 ar  
    63    23    27 ar  
    64    24    25 ar  
    65    24    30 ar  
    66    25    26 ar  
    67    25    66 1   
    68    26    67 1   
    69    27    28 ar  
    70    27    68 1   
    71    28    29 ar  
    72    28    69 1   
    73    29    30 ar  
    74    29    70 1   
    75    30    71 1   
@<TRIPOS>SUBSTRUCTURE
     1 92H         1 TEMP              0 ****  ****    0 ROOT
