@<TRIPOS>MOLECULE
92I
   65    67     1     0     0
SMALL
No Charge or Current Charge


@<TRIPOS>ATOM
      1 C1         -26.5670    22.8150   -19.8010 ca         1 92I      -0.125000
      2 C2         -27.2390    23.1910   -20.9680 ca         1 92I      -0.071000
      3 C3         -25.2560    23.2590   -19.5760 ca         1 92I      -0.057000
      4 C7         -23.1690    24.4970   -20.1530 c          1 92I       0.609700
      5 C8         -21.1730    27.0890   -22.5880 c          1 92I       0.593100
      6 C10        -22.5150    28.7450   -25.6070 c          1 92I       0.598100
      7 C12        -24.7040    25.3840   -22.7930 c3         1 92I       0.022200
      8 C13        -19.3580    22.1680   -27.2030 c5         1 92I      -0.094400
      9 C14        -18.9320    22.8030   -25.8560 c5         1 92I      -0.084400
     10 C15        -19.9990    23.3720   -27.9400 c5         1 92I       0.107000
     11 C16        -20.9960    25.1700   -20.9690 c3         1 92I       0.156600
     12 C19        -20.1930    23.6390   -25.4840 c5         1 92I       0.031700
     13 C20        -22.8010    28.2640   -24.1420 c3         1 92I       0.065700
     14 C21        -22.0600    25.4870   -28.3920 c3         1 92I      -0.174100
     15 N25        -20.6700    24.0730   -26.8250 n          1 92I      -0.403800
     16 N26        -20.5360    24.7700   -23.3860 ns         1 92I      -0.504900
     17 O28        -22.7730    24.5370   -18.9950 o          1 92I      -0.485000
     18 C4         -26.5990    24.0120   -21.9060 ca         1 92I      -0.109000
     19 C5         -24.5840    24.0820   -20.5120 ca         1 92I      -0.146600
     20 C6         -25.2780    24.4700   -21.7030 ca         1 92I      -0.001300
     21 C17        -24.2910    27.8890   -23.9300 c3         1 92I      -0.040100
     22 C18        -20.4380    25.7560   -22.2800 c3         1 92I       0.030700
     23 N24        -21.9070    27.1490   -23.7560 ns         1 92I      -0.502900
     24 N27        -21.1750    28.9410   -26.0280 n          1 92I      -0.401800
     25 O29        -21.1160    28.0460   -21.8280 o          1 92I      -0.614100
     26 O30        -18.9450    25.6820   -24.7470 o          1 92I      -0.586100
     27 O31        -23.4290    28.8810   -26.4150 o          1 92I      -0.599100
     28 O32        -22.2910    25.4620   -26.0090 o          1 92I      -0.645100
     29 O34        -22.3690    24.8020   -21.2190 os         1 92I      -0.461100
     30 S35        -24.6360    27.1600   -22.2570 s4         1 92I       0.187400
     31 H1         -27.0610    22.1800   -19.0690 ha         1 92I       0.121000
     32 H2         -28.2580    22.8510   -21.1460 ha         1 92I       0.119000
     33 H3         -24.7550    22.9490   -18.6600 ha         1 92I       0.135000
     34 H4         -25.3480    25.3420   -23.6790 h1         1 92I       0.088200
     35 H5         -23.7090    25.0610   -23.1150 h1         1 92I       0.088200
     36 H7         -18.5160    21.7380   -27.7580 hc         1 92I       0.059700
     37 H8         -18.6840    22.0570   -25.0930 hc         1 92I       0.067700
     38 H9         -18.0470    23.4360   -25.9930 hc         1 92I       0.067700
     39 H10        -19.2390    24.0170   -28.4010 h1         1 92I       0.054700
     40 H11        -20.7000    23.0410   -28.7190 h1         1 92I       0.054700
     41 H12        -20.4050    24.2950   -20.6650 h1         1 92I       0.075700
     42 H13        -20.9230    25.9260   -20.1750 h1         1 92I       0.075700
     43 H14        -20.9530    23.0110   -25.0000 h1         1 92I       0.065700
     44 H15        -22.5820    29.1270   -23.5000 h1         1 92I       0.089700
     45 H16        -22.8120    26.2840   -28.3860 hc         1 92I       0.067033
     46 H17        -21.1470    25.7920   -28.9160 hc         1 92I       0.067033
     47 H18        -22.4010    24.6280   -28.9790 hc         1 92I       0.067033
     48 H22        -21.2110    24.0170   -23.2990 hn         1 92I       0.331500
     49 H23        -27.1440    24.3020   -22.8010 ha         1 92I       0.124000
     50 H24        -24.9100    28.7890   -24.0310 h1         1 92I       0.101700
     51 H25        -24.6100    27.1710   -24.6950 h1         1 92I       0.101700
     52 H26        -19.3810    26.0110   -22.1280 h1         1 92I       0.106700
     53 H30        -21.8720    26.3340   -24.3690 hn         1 92I       0.359500
     54 O33        -26.0480    27.5640   -21.8910 o          1 92I      -0.501000
     55 C9         -19.7850    24.8170   -24.5410 c          1 92I       0.597100
     56 C22        -20.0920    29.2410   -25.0630 c3         1 92I       0.087300
     57 C23        -20.8760    29.1920   -27.4560 c3         1 92I       0.087300
     58 H6         -20.0910    21.3670   -27.0480 hc         1 92I       0.059700
     59 C11        -21.7030    25.0170   -26.9850 c          1 92I       0.622100
     60 H19        -20.4910    29.7690   -24.1880 h1         1 92I       0.043700
     61 H20        -19.6130    28.3090   -24.7410 h1         1 92I       0.043700
     62 H21        -19.3330    29.8810   -25.5310 h1         1 92I       0.043700
     63 H27        -19.8030    29.0590   -27.6480 h1         1 92I       0.043700
     64 H28        -21.4310    28.4860   -28.0860 h1         1 92I       0.043700
     65 H29        -21.1650    30.2170   -27.7200 h1         1 92I       0.043700
@<TRIPOS>BOND
     1     1     2 ar  
     2     1     3 ar  
     3     1    31 1   
     4     2    18 ar  
     5     2    32 1   
     6     3    19 ar  
     7     3    33 1   
     8     4    17 2   
     9     4    19 1   
    10     4    29 1   
    11     5    22 1   
    12     5    23 1   
    13     5    25 2   
    14     6    13 1   
    15     6    24 1   
    16     6    27 2   
    17     7    20 1   
    18     7    30 1   
    19     7    34 1   
    20     7    35 1   
    21     8     9 1   
    22     8    10 1   
    23     8    36 1   
    24     8    58 1   
    25     9    12 1   
    26     9    37 1   
    27     9    38 1   
    28    10    15 1   
    29    10    39 1   
    30    10    40 1   
    31    11    22 1   
    32    11    29 1   
    33    11    41 1   
    34    11    42 1   
    35    12    15 1   
    36    12    43 1   
    37    12    55 1   
    38    13    21 1   
    39    13    23 1   
    40    13    44 1   
    41    14    45 1   
    42    14    46 1   
    43    14    47 1   
    44    14    59 1   
    45    15    59 1   
    46    16    22 1   
    47    16    48 1   
    48    16    55 1   
    49    18    20 ar  
    50    18    49 1   
    51    19    20 ar  
    52    21    30 1   
    53    21    50 1   
    54    21    51 1   
    55    22    52 1   
    56    23    53 1   
    57    24    56 1   
    58    24    57 1   
    59    26    55 2   
    60    28    59 2   
    61    30    54 2   
    62    56    60 1   
    63    56    61 1   
    64    56    62 1   
    65    57    63 1   
    66    57    64 1   
    67    57    65 1   
@<TRIPOS>SUBSTRUCTURE
     1 92I         1 TEMP              0 ****  ****    0 ROOT
