@<TRIPOS>MOLECULE
92I
   65    67     1     0     0
SMALL
abcg2


@<TRIPOS>ATOM
      1 C1         -26.5870    23.2000   -19.4630 ca         1 92I      -0.125000
      2 C2         -27.3270    23.6330   -20.5510 ca         1 92I      -0.071000
      3 C3         -25.2300    23.4610   -19.4220 ca         1 92I      -0.057000
      4 C7         -23.1200    24.3430   -20.2350 c          1 92I       0.609700
      5 C8         -21.2820    26.9390   -22.7180 c          1 92I       0.593100
      6 C10        -22.6110    28.5810   -25.6080 c          1 92I       0.598100
      7 C12        -24.8050    25.3440   -22.7420 c3         1 92I       0.022200
      8 C13        -19.0370    22.3000   -27.2930 c5         1 92I      -0.094400
      9 C14        -18.9570    22.7110   -25.8270 c5         1 92I      -0.084400
     10 C15        -19.5690    23.5540   -27.9710 c5         1 92I       0.107000
     11 C16        -21.0590    25.0500   -21.1350 c3         1 92I       0.156600
     12 C19        -20.2060    23.5790   -25.6310 c5         1 92I       0.031700
     13 C20        -22.8700    28.1280   -24.1620 c3         1 92I       0.065700
     14 C21        -21.6810    25.4420   -28.5850 c3         1 92I      -0.174100
     15 N25        -20.4630    24.1090   -26.9610 n          1 92I      -0.403800
     16 N26        -20.6770    24.6360   -23.5020 ns         1 92I      -0.504900
     17 O28        -22.5650    24.0670   -19.2010 o          1 92I      -0.485000
     18 C4         -26.6980    24.3170   -21.5780 ca         1 92I      -0.109000
     19 C5         -24.5810    24.1430   -20.4540 ca         1 92I      -0.146600
     20 C6         -25.3280    24.5750   -21.5670 ca         1 92I      -0.001300
     21 C17        -24.3410    27.7790   -23.9710 c3         1 92I      -0.040100
     22 C18        -20.5610    25.6130   -22.4520 c3         1 92I       0.030700
     23 N24        -22.0380    26.9960   -23.8250 ns         1 92I      -0.502900
     24 N27        -21.3670    28.9760   -25.9240 n          1 92I      -0.401800
     25 O29        -21.1630    27.8520   -21.9170 o          1 92I      -0.614100
     26 O30        -19.1420    25.5860   -24.8560 o          1 92I      -0.586100
     27 O31        -23.5170    28.5590   -26.4290 o          1 92I      -0.599100
     28 O32        -22.1940    25.3400   -26.2490 o          1 92I      -0.645100
     29 O34        -22.4700    24.8460   -21.2760 os         1 92I      -0.461100
     30 S35        -24.6110    27.1130   -22.2800 s4         1 92I       0.187400
     31 H1         -27.0590    22.6630   -18.6520 ha         1 92I       0.121000
     32 H2         -28.3920    23.4440   -20.6020 ha         1 92I       0.119000
     33 H3         -24.6550    23.1250   -18.5700 ha         1 92I       0.135000
     34 H4         -25.5390    25.3190   -23.5490 h1         1 92I       0.088200
     35 H5         -23.8560    24.9940   -23.1360 h1         1 92I       0.088200
     36 H7         -18.0760    21.9880   -27.6980 hc         1 92I       0.059700
     37 H8         -18.9420    21.8670   -25.1400 hc         1 92I       0.067700
     38 H9         -18.0560    23.3020   -25.6570 hc         1 92I       0.067700
     39 H10        -18.7620    24.2560   -28.2000 h1         1 92I       0.054700
     40 H11        -20.1010    23.3340   -28.8950 h1         1 92I       0.054700
     41 H12        -20.5570    24.1060   -20.9140 h1         1 92I       0.075700
     42 H13        -20.8530    25.7530   -20.3290 h1         1 92I       0.075700
     43 H14        -21.0510    22.9630   -25.3070 h1         1 92I       0.065700
     44 H15        -22.6210    28.9410   -23.4770 h1         1 92I       0.089700
     45 H16        -22.4520    26.2070   -28.6000 hc         1 92I       0.067033
     46 H17        -20.7650    25.8560   -29.0080 hc         1 92I       0.067033
     47 H18        -21.9940    24.6200   -29.2310 hc         1 92I       0.067033
     48 H22        -21.3960    23.9320   -23.4280 hn         1 92I       0.331500
     49 H23        -27.2840    24.6510   -22.4240 ha         1 92I       0.124000
     50 H24        -24.9700    28.6680   -24.0200 h1         1 92I       0.101700
     51 H25        -24.6940    27.0610   -24.7110 h1         1 92I       0.101700
     52 H26        -19.5050    25.8570   -22.3090 h1         1 92I       0.106700
     53 H30        -22.0540    26.2130   -24.4720 hn         1 92I       0.359500
     54 O33        -25.9800    27.5750   -21.8520 o          1 92I      -0.501000
     55 C9         -19.9570    24.7070   -24.6380 c          1 92I       0.597100
     56 C22        -20.2840    29.1790   -24.9820 c3         1 92I       0.087300
     57 C23        -21.0690    29.2750   -27.3120 c3         1 92I       0.087300
     58 H6         -19.7420    21.4770   -27.4220 hc         1 92I       0.059700
     59 C11        -21.4710    24.9670   -27.1730 c          1 92I       0.622100
     60 H19        -20.6450    29.3810   -23.9790 h1         1 92I       0.043700
     61 H20        -19.6130    28.3200   -24.9470 h1         1 92I       0.043700
     62 H21        -19.7110    30.0520   -25.2910 h1         1 92I       0.043700
     63 H27        -19.9980    29.1660   -27.4720 h1         1 92I       0.043700
     64 H28        -21.5820    28.5890   -27.9810 h1         1 92I       0.043700
     65 H29        -21.3540    30.2960   -27.5780 h1         1 92I       0.043700
@<TRIPOS>BOND
     1     1     2 ar  
     2     1     3 ar  
     3     1    31 1   
     4     2    18 ar  
     5     2    32 1   
     6     3    19 ar  
     7     3    33 1   
     8     4    17 2   
     9     4    19 1   
    10     4    29 1   
    11     5    22 1   
    12     5    23 1   
    13     5    25 2   
    14     6    13 1   
    15     6    24 1   
    16     6    27 2   
    17     7    20 1   
    18     7    30 1   
    19     7    34 1   
    20     7    35 1   
    21     8     9 1   
    22     8    10 1   
    23     8    36 1   
    24     8    58 1   
    25     9    12 1   
    26     9    37 1   
    27     9    38 1   
    28    10    15 1   
    29    10    39 1   
    30    10    40 1   
    31    11    22 1   
    32    11    29 1   
    33    11    41 1   
    34    11    42 1   
    35    12    15 1   
    36    12    43 1   
    37    12    55 1   
    38    13    21 1   
    39    13    23 1   
    40    13    44 1   
    41    14    45 1   
    42    14    46 1   
    43    14    47 1   
    44    14    59 1   
    45    15    59 1   
    46    16    22 1   
    47    16    48 1   
    48    16    55 1   
    49    18    20 ar  
    50    18    49 1   
    51    19    20 ar  
    52    21    30 1   
    53    21    50 1   
    54    21    51 1   
    55    22    52 1   
    56    23    53 1   
    57    24    56 1   
    58    24    57 1   
    59    26    55 2   
    60    28    59 2   
    61    30    54 2   
    62    56    60 1   
    63    56    61 1   
    64    56    62 1   
    65    57    63 1   
    66    57    64 1   
    67    57    65 1   
@<TRIPOS>SUBSTRUCTURE
     1 92I         1 TEMP              0 ****  ****    0 ROOT
