@<TRIPOS>MOLECULE
92J
   68    72     1     0     0
SMALL
bcc


@<TRIPOS>ATOM
      1 C1           0.4740    -3.5790     1.4080 ca         1 92J       0.412600
      2 C2           0.4430    -2.3350     0.7630 cp         1 92J      -0.116300
      3 C3          -0.7750    -1.8470     0.3000 ca         1 92J      -0.100000
      4 C11          3.8880    -0.0210     0.0790 ca         1 92J       0.654600
      5 C13          2.7740    -2.0080    -0.0760 ca         1 92J       0.440200
      6 C15          3.8730     2.2910     2.1470 c6         1 92J       0.150300
      7 C16          4.0670     3.7930     2.1890 c6         1 92J       0.128400
      8 C18          1.9060     4.1440     1.4150 c6         1 92J       0.128400
      9 C19          1.6450     2.6500     1.3550 c6         1 92J       0.150300
     10 C22         -3.6540    -0.9870    -0.2160 c          1 92J       0.688700
     11 C23         -5.0710    -0.9090    -0.6830 ca         1 92J      -0.162600
     12 C24         -5.6840    -1.9280    -1.4090 ca         1 92J      -0.077000
     13 C25         -6.9930    -1.7870    -1.8390 ca         1 92J      -0.141000
     14 C26         -7.7070    -0.6350    -1.5450 ca         1 92J      -0.054000
     15 C27         -7.0960     0.3850    -0.8280 ca         1 92J      -0.205300
     16 C28         -5.7790     0.2550    -0.4080 ca         1 92J      -0.026000
     17 C30         -7.8290     1.6450    -0.4870 c3         1 92J       0.723200
     18 F33         -7.1890     2.7280    -0.9510 f          1 92J      -0.231633
     19 C36          8.5340     0.4660    -1.1790 c6         1 92J       0.132400
     20 F32         -9.0650     1.6730    -0.9900 f          1 92J      -0.231633
     21 C8           1.6530    -1.5140     0.5610 cp         1 92J      -0.177300
     22 C35          7.3100     0.9980    -0.4450 c6         1 92J      -0.127400
     23 N14          2.8970     1.9560     1.1130 nh         1 92J      -0.620000
     24 F31         -7.9400     1.8080     0.8390 f          1 92J      -0.231633
     25 N6          -0.6340    -4.3030     1.5460 nb         1 92J      -0.655000
     26 C34          6.1040     0.1470    -0.8010 c6         1 92J       0.158100
     27 C39          5.9440     0.0900    -2.3120 c6         1 92J      -0.127400
     28 C38          7.2500    -0.3870    -2.9350 c6         1 92J       0.132400
     29 O20          4.9640     0.7300    -0.1650 os         1 92J      -0.431100
     30 O37          8.3400     0.4330    -2.5750 os         1 92J      -0.401600
     31 C5          -1.7850    -3.8440     1.0940 ca         1 92J       0.366200
     32 C4          -1.9270    -2.6070     0.4690 ca         1 92J      -0.057700
     33 C10          2.8110     0.6080     0.7560 ca         1 92J      -0.000700
     34 C9           1.6950    -0.1780     0.9780 ca         1 92J      -0.111000
     35 O29         -2.9830     0.0170    -0.0600 o          1 92J      -0.572100
     36 N12          3.8590    -1.2720    -0.3060 nb         1 92J      -0.756000
     37 C7           1.7260    -4.1570     1.9970 c3         1 92J      -0.142400
     38 O17          2.8510     4.4720     2.4080 os         1 92J      -0.402600
     39 H1          -0.8030    -0.8930    -0.2040 ha         1 92J       0.168000
     40 H2           2.8000    -3.0250    -0.4490 h4         1 92J       0.023100
     41 H3           4.8320     1.8220     1.9350 h1         1 92J       0.048700
     42 H4           3.5360     1.9280     3.1300 h1         1 92J       0.048700
     43 H5           4.7420     4.0570     3.0050 h1         1 92J       0.053950
     44 H6           4.5280     4.1220     1.2470 h1         1 92J       0.053950
     45 H7           2.2460     4.4900     0.4290 h1         1 92J       0.053950
     46 H8           0.9810     4.6700     1.6570 h1         1 92J       0.053950
     47 H9           1.1640     2.3260     2.2920 h1         1 92J       0.048700
     48 H10          0.9470     2.4490     0.5400 h1         1 92J       0.048700
     49 H11         -5.1440    -2.8290    -1.6730 ha         1 92J       0.138000
     50 H12         -7.4600    -2.5760    -2.4110 ha         1 92J       0.145000
     51 H13         -8.7290    -0.5450    -1.8850 ha         1 92J       0.155000
     52 H14         -5.2930     1.0490     0.1450 ha         1 92J       0.169000
     53 H16          8.7770    -0.5390    -0.8030 h1         1 92J       0.046450
     54 H17          7.4970     0.9720     0.6320 hc         1 92J       0.063950
     55 H18          7.1310     2.0400    -0.7260 hc         1 92J       0.063950
     56 H20          6.2530    -0.8690    -0.4190 h1         1 92J       0.062700
     57 H21          5.1420    -0.5920    -2.5970 hc         1 92J       0.063950
     58 H22          5.6910     1.0840    -2.6950 hc         1 92J       0.063950
     59 H23          7.4400    -1.4280    -2.6340 h1         1 92J       0.046450
     60 H24          7.1810    -0.3700    -4.0240 h1         1 92J       0.046450
     61 H25         -2.6540    -4.4820     1.2350 h4         1 92J       0.015100
     62 H26          0.8390     0.2350     1.4960 ha         1 92J       0.148000
     63 H27          2.3350    -4.6610     1.2450 hc         1 92J       0.053033
     64 H28          2.3500    -3.3920     2.4580 hc         1 92J       0.053033
     65 H29          1.4690    -4.8970     2.7540 hc         1 92J       0.053033
     66 N21         -3.1990    -2.2420     0.0260 ns         1 92J      -0.463100
     67 H15          9.3980     1.1050    -0.9890 h1         1 92J       0.046450
     68 H19         -3.8790    -2.9870     0.0290 hn         1 92J       0.323500
@<TRIPOS>BOND
     1     1     2 ar  
     2     1    25 ar  
     3     1    37 1   
     4     2     3 ar  
     5     2    21 1   
     6     3    32 ar  
     7     3    39 1   
     8     4    29 1   
     9     4    33 ar  
    10     4    36 ar  
    11     5    21 ar  
    12     5    36 ar  
    13     5    40 1   
    14     6     7 1   
    15     6    23 1   
    16     6    41 1   
    17     6    42 1   
    18     7    38 1   
    19     7    43 1   
    20     7    44 1   
    21     8     9 1   
    22     8    38 1   
    23     8    45 1   
    24     8    46 1   
    25     9    23 1   
    26     9    47 1   
    27     9    48 1   
    28    10    11 1   
    29    10    35 2   
    30    10    66 1   
    31    11    12 ar  
    32    11    16 ar  
    33    12    13 ar  
    34    12    49 1   
    35    13    14 ar  
    36    13    50 1   
    37    14    15 ar  
    38    14    51 1   
    39    15    16 ar  
    40    15    17 1   
    41    16    52 1   
    42    17    18 1   
    43    17    20 1   
    44    17    24 1   
    45    19    22 1   
    46    19    30 1   
    47    19    53 1   
    48    19    67 1   
    49    21    34 ar  
    50    22    26 1   
    51    22    54 1   
    52    22    55 1   
    53    23    33 1   
    54    25    31 ar  
    55    26    27 1   
    56    26    29 1   
    57    26    56 1   
    58    27    28 1   
    59    27    57 1   
    60    27    58 1   
    61    28    30 1   
    62    28    59 1   
    63    28    60 1   
    64    31    32 ar  
    65    31    61 1   
    66    32    66 1   
    67    33    34 ar  
    68    34    62 1   
    69    37    63 1   
    70    37    64 1   
    71    37    65 1   
    72    66    68 1   
@<TRIPOS>SUBSTRUCTURE
     1 92J         1 TEMP              0 ****  ****    0 ROOT
