@<TRIPOS>MOLECULE
92J
   68    72     1     0     0
SMALL
No Charge or Current Charge


@<TRIPOS>ATOM
      1 C1           0.4600    -3.7990     1.3750 ca         1 92J       0.347300
      2 C2           0.4700    -2.4750     0.8410 cp         1 92J      -0.051000
      3 C3          -0.7700    -1.9230     0.4390 ca         1 92J      -0.082000
      4 C11          4.0530    -0.1900     0.3670 ca         1 92J       0.589300
      5 C13          2.8710    -2.1630     0.0520 ca         1 92J       0.374900
      6 C15          3.9840     2.1630     2.6050 c6         1 92J       0.150300
      7 C16          4.2780     3.6920     2.5730 c6         1 92J       0.151600
      8 C18          2.1490     4.1620     1.5490 c6         1 92J       0.151600
      9 C19          1.7660     2.6510     1.5310 c6         1 92J       0.150300
     10 C22         -3.7030    -0.9840    -0.2560 c          1 92J       0.621700
     11 C23         -5.1800    -0.9070    -0.5990 ca         1 92J      -0.162600
     12 C24         -6.0400    -2.0270    -0.4950 ca         1 92J      -0.059000
     13 C25         -7.4010    -1.9100    -0.8180 ca         1 92J      -0.123000
     14 C26         -7.9270    -0.6840    -1.2520 ca         1 92J      -0.036000
     15 C27         -7.0900     0.4440    -1.3730 ca         1 92J      -0.205300
     16 C28         -5.7230     0.3230    -1.0380 ca         1 92J      -0.008000
     17 C30         -7.6470     1.7940    -1.8360 c3         1 92J       0.359300
     18 F33         -6.7820     2.4510    -2.6420 f          1 92J      -0.110333
     19 C36          8.5280     0.7060    -1.6620 c6         1 92J       0.155600
     20 F32         -8.8030     1.6730    -2.5280 f          1 92J      -0.110333
     21 C8           1.7170    -1.6590     0.7000 cp         1 92J      -0.112000
     22 C35          7.5050     0.9600    -0.5320 c6         1 92J      -0.127400
     23 N14          2.9760     1.7680     1.5690 nh         1 92J      -0.758400
     24 F31         -7.9010     2.6060    -0.7850 f          1 92J      -0.110333
     25 N6          -0.6680    -4.5370     1.4860 nb         1 92J      -0.655000
     26 C34          6.1990     0.1750    -0.7970 c6         1 92J       0.181300
     27 C39          5.6690     0.4920    -2.2210 c6         1 92J      -0.127400
     28 C38          6.7770     0.2620    -3.2720 c6         1 92J       0.155600
     29 O20          5.2260     0.5320     0.2080 os         1 92J      -0.454300
     30 O37          7.9420     1.0450    -2.9360 os         1 92J      -0.448000
     31 C5          -1.8360    -3.9910     1.0840 ca         1 92J       0.300900
     32 C4          -1.9490    -2.6880     0.5610 ca         1 92J      -0.085000
     33 C10          2.9450     0.4300     1.0490 ca         1 92J       0.203000
     34 C9           1.7710    -0.3350     1.1940 ca         1 92J      -0.093000
     35 O29         -2.9800     0.0010    -0.3540 o          1 92J      -0.572100
     36 N12          4.0110    -1.4620    -0.1090 nb         1 92J      -0.756000
     37 C7           1.7110    -4.4910     1.8980 c3         1 92J      -0.142400
     38 O17          3.0480     4.4520     2.6460 os         1 92J      -0.449000
     39 H1          -0.7830    -0.9210     0.0230 ha         1 92J       0.150000
     40 H2           2.8720    -3.1690    -0.3650 h4         1 92J       0.023100
     41 H3           4.9310     1.6240     2.4620 h1         1 92J       0.048700
     42 H4           3.6120     1.8960     3.6050 h1         1 92J       0.048700
     43 H5           4.9220     3.9660     3.4210 h1         1 92J       0.053950
     44 H6           4.8080     3.9500     1.6450 h1         1 92J       0.053950
     45 H7           2.6380     4.4330     0.6020 h1         1 92J       0.053950
     46 H8           1.2430     4.7750     1.6520 h1         1 92J       0.053950
     47 H9           1.1190     2.4400     2.3950 h1         1 92J       0.048700
     48 H10          1.1780     2.4530     0.6230 h1         1 92J       0.048700
     49 H11         -5.6760    -2.9970    -0.1640 ha         1 92J       0.120000
     50 H12         -8.0540    -2.7750    -0.7300 ha         1 92J       0.127000
     51 H13         -8.9880    -0.6180    -1.4890 ha         1 92J       0.137000
     52 H14         -5.0780     1.1980    -1.1190 ha         1 92J       0.151000
     53 H16          8.8360    -0.3510    -1.6720 h1         1 92J       0.046450
     54 H17          7.9350     0.6600     0.4320 hc         1 92J       0.063950
     55 H18          7.2920     2.0350    -0.4660 hc         1 92J       0.063950
     56 H20          6.4290    -0.8980    -0.7200 h1         1 92J       0.062700
     57 H21          4.8040    -0.1390    -2.4600 hc         1 92J       0.063950
     58 H22          5.3260     1.5340    -2.2710 hc         1 92J       0.063950
     59 H23          7.0530    -0.8030    -3.3120 h1         1 92J       0.046450
     60 H24          6.4200     0.5600    -4.2680 h1         1 92J       0.046450
     61 H25         -2.7180    -4.6210     1.1920 h4         1 92J       0.015100
     62 H26          0.9080     0.0810     1.7060 ha         1 92J       0.130000
     63 H27          2.2630    -4.9710     1.0830 hc         1 92J       0.053033
     64 H28          2.3810    -3.7800     2.3950 hc         1 92J       0.053033
     65 H29          1.4670    -5.2670     2.6330 hc         1 92J       0.053033
     66 N21         -3.2430    -2.2240     0.1750 ns         1 92J      -0.137000
     67 H15          9.4250     1.3220    -1.5040 h1         1 92J       0.046450
     68 H19         -3.9600    -2.9350     0.2240 hn         1 92J       0.157000
@<TRIPOS>BOND
     1     1     2 ar  
     2     1    25 ar  
     3     1    37 1   
     4     2     3 ar  
     5     2    21 1   
     6     3    32 ar  
     7     3    39 1   
     8     4    29 1   
     9     4    33 ar  
    10     4    36 ar  
    11     5    21 ar  
    12     5    36 ar  
    13     5    40 1   
    14     6     7 1   
    15     6    23 1   
    16     6    41 1   
    17     6    42 1   
    18     7    38 1   
    19     7    43 1   
    20     7    44 1   
    21     8     9 1   
    22     8    38 1   
    23     8    45 1   
    24     8    46 1   
    25     9    23 1   
    26     9    47 1   
    27     9    48 1   
    28    10    11 1   
    29    10    35 2   
    30    10    66 1   
    31    11    12 ar  
    32    11    16 ar  
    33    12    13 ar  
    34    12    49 1   
    35    13    14 ar  
    36    13    50 1   
    37    14    15 ar  
    38    14    51 1   
    39    15    16 ar  
    40    15    17 1   
    41    16    52 1   
    42    17    18 1   
    43    17    20 1   
    44    17    24 1   
    45    19    22 1   
    46    19    30 1   
    47    19    53 1   
    48    19    67 1   
    49    21    34 ar  
    50    22    26 1   
    51    22    54 1   
    52    22    55 1   
    53    23    33 1   
    54    25    31 ar  
    55    26    27 1   
    56    26    29 1   
    57    26    56 1   
    58    27    28 1   
    59    27    57 1   
    60    27    58 1   
    61    28    30 1   
    62    28    59 1   
    63    28    60 1   
    64    31    32 ar  
    65    31    61 1   
    66    32    66 1   
    67    33    34 ar  
    68    34    62 1   
    69    37    63 1   
    70    37    64 1   
    71    37    65 1   
    72    66    68 1   
@<TRIPOS>SUBSTRUCTURE
     1 92J         1 TEMP              0 ****  ****    0 ROOT
