@<TRIPOS>MOLECULE
92K
   18    18     1     0     0
SMALL
No Charge or Current Charge


@<TRIPOS>ATOM
      1 O10          3.2300     0.5860    -0.4990 o          1 92K      -0.703500
      2 O11          2.2080     1.0390     1.3500 o          1 92K      -0.703500
      3 C01         -1.8790     1.8540    -0.2680 ca         1 92K      -0.212000
      4 C02         -2.9670     1.0080    -0.0150 ca         1 92K      -0.057000
      5 C03         -2.7430    -0.3590     0.2030 ca         1 92K      -0.243000
      6 C04         -1.4430    -0.8810     0.1670 ca         1 92K       0.367000
      7 C05         -0.3400    -0.0390    -0.0900 ca         1 92K      -0.227600
      8 C06         -0.5730     1.3380    -0.3050 ca         1 92K       0.003000
      9 C07          1.0840    -0.5630    -0.1390 c          1 92K       0.464700
     10 O08          1.3250    -1.7200    -0.5080 o          1 92K      -0.613100
     11 C09          2.2850     0.4470     0.2750 c          1 92K       0.663000
     12 H2          -2.0470     2.9150    -0.4380 ha         1 92K       0.100000
     13 H3          -3.9780     1.4100     0.0140 ha         1 92K       0.084000
     14 H4          -3.5890    -1.0100     0.4030 ha         1 92K       0.088000
     15 H5           0.2520     2.0170    -0.5130 ha         1 92K       0.141000
     16 H6          -2.0950    -2.8200     0.2980 hn         1 92K       0.483000
     17 H7          -0.3830    -2.6090     0.1220 hn         1 92K       0.483000
     18 N12         -1.2840    -2.2130     0.3970 nv         1 92K      -1.118000
@<TRIPOS>BOND
     1     1    11 1   
     2     2    11 1   
     3     3     4 ar  
     4     3     8 ar  
     5     3    12 1   
     6     4     5 ar  
     7     4    13 1   
     8     5     6 ar  
     9     5    14 1   
    10     6     7 ar  
    11     6    18 1   
    12     7     8 ar  
    13     7     9 1   
    14     8    15 1   
    15     9    10 2   
    16     9    11 1   
    17    16    18 1   
    18    17    18 1   
@<TRIPOS>SUBSTRUCTURE
     1 92K         1 TEMP              0 ****  ****    0 ROOT
