@<TRIPOS>MOLECULE
92K
   18    18     1     0     0
SMALL
bcc


@<TRIPOS>ATOM
      1 O10          2.7750     0.5220    -1.1000 o          1 92K      -0.808800
      2 O11          2.4720     1.1010     1.0460 o          1 92K      -0.808800
      3 C01         -1.8270     1.8750    -0.1350 ca         1 92K      -0.230000
      4 C02         -2.9160     1.0000    -0.1130 ca         1 92K      -0.075000
      5 C03         -2.7290    -0.3560     0.0190 ca         1 92K      -0.261000
      6 C04         -1.4370    -0.9100     0.1340 ca         1 92K       0.228600
      7 C05         -0.3230    -0.0290     0.0920 ca         1 92K      -0.227600
      8 C06         -0.5580     1.3500    -0.0350 ca         1 92K      -0.015000
      9 C07          1.0580    -0.5230     0.1160 c          1 92K       0.464700
     10 O08          1.3400    -1.7140     0.2150 o          1 92K      -0.613100
     11 C09          2.2120     0.4780     0.0040 c          1 92K       0.873600
     12 H2          -1.9760     2.9420    -0.2280 ha         1 92K       0.118000
     13 H3          -3.9240     1.3870    -0.1990 ha         1 92K       0.102000
     14 H4          -3.5840    -1.0210     0.0400 ha         1 92K       0.106000
     15 H5           0.2830     2.0300    -0.0430 ha         1 92K       0.159000
     16 H6          -2.1020    -2.8330     0.1120 hn         1 92K       0.427800
     17 H7          -0.3930    -2.6540     0.2250 hn         1 92K       0.427800
     18 N12         -1.3090    -2.2450     0.3040 nv         1 92K      -0.869200
@<TRIPOS>BOND
     1     1    11 1   
     2     2    11 1   
     3     3     4 ar  
     4     3     8 ar  
     5     3    12 1   
     6     4     5 ar  
     7     4    13 1   
     8     5     6 ar  
     9     5    14 1   
    10     6     7 ar  
    11     6    18 1   
    12     7     8 ar  
    13     7     9 1   
    14     8    15 1   
    15     9    10 2   
    16     9    11 1   
    17    16    18 1   
    18    17    18 1   
@<TRIPOS>SUBSTRUCTURE
     1 92K         1 TEMP              0 ****  ****    0 ROOT
