@<TRIPOS>MOLECULE
92L
   36    37     1     0     0
SMALL
No Charge or Current Charge


@<TRIPOS>ATOM
      1 C10         -2.1320     1.3560     0.8020 ca         1 92L       0.020000
      2 C13         -0.5210    -0.3130    -0.8150 ca         1 92L      -0.144200
      3 C1           3.4940    -1.7890     1.5140 c6         1 92L      -0.177900
      4 C2           4.7690    -0.9950     1.8210 c6         1 92L      -0.063400
      5 C3           5.1280    -0.1580     0.5880 c6         1 92L      -0.177900
      6 C4           4.0080     0.7880     0.1380 c          1 92L       0.600800
      7 C5           2.5740     0.3500     0.3240 ce         1 92L      -0.364400
      8 C6           2.3120    -0.9030     1.1150 c          1 92L       0.600800
      9 C7           1.5180     1.0840    -0.1690 cf         1 92L       0.291900
     10 C8           0.0680     0.7750    -0.1080 ca         1 92L      -0.022800
     11 C9          -0.7550     1.6010     0.6860 ca         1 92L      -0.122000
     12 C11         -2.7110     0.2720     0.1190 ca         1 92L      -0.261500
     13 C12         -1.9070    -0.5600    -0.6870 ca         1 92L       0.041000
     14 O14          1.1960    -1.2310     1.4890 o          1 92L      -0.535600
     15 O16          1.7120     2.2250    -0.8510 oh         1 92L      -0.462100
     16 N17          0.2850    -1.2200    -1.6910 no         1 92L       0.698200
     17 O18          1.2040    -0.7300    -2.3580 o          1 92L      -0.379000
     18 O19         -0.0830    -2.3970    -1.7970 o          1 92L      -0.379000
     19 S20         -4.4790    -0.0450     0.2620 sy         1 92L       1.058500
     20 O21         -4.7380    -1.4500    -0.0760 o          1 92L      -0.506500
     21 O22         -4.9660     0.5420     1.5170 o          1 92L      -0.506500
     22 C23         -5.1740     0.9370    -1.0650 c3         1 92L      -0.338100
     23 H1          -2.7390     2.0100     1.4260 ha         1 92L       0.151000
     24 H2           3.7080    -2.4210     0.6420 hc         1 92L       0.074200
     25 H3           3.2030    -2.4570     2.3360 hc         1 92L       0.074200
     26 H4           4.6160    -0.3460     2.6950 hc         1 92L       0.050700
     27 H5           5.5930    -1.6800     2.0690 hc         1 92L       0.050700
     28 H6           6.0640     0.4030     0.7170 hc         1 92L       0.074200
     29 H7           5.2850    -0.8570    -0.2440 hc         1 92L       0.074200
     30 H10         -0.3200     2.4350     1.2340 ha         1 92L       0.141000
     31 H11         -2.3620    -1.3940    -1.2240 ha         1 92L       0.176000
     32 H12          0.8320     2.5270    -1.1530 ho         1 92L       0.480000
     33 H13         -4.9090     1.9850    -0.8900 h1         1 92L       0.106700
     34 H14         -4.7500     0.5840    -2.0110 h1         1 92L       0.106700
     35 H15         -6.2610     0.8040    -1.0540 h1         1 92L       0.106700
     36 O15          4.3370     1.8720    -0.3260 o          1 92L      -0.535600
@<TRIPOS>BOND
     1     1    11 ar  
     2     1    12 ar  
     3     1    23 1   
     4     2    10 ar  
     5     2    13 ar  
     6     2    16 1   
     7     3     4 1   
     8     3     8 1   
     9     3    24 1   
    10     3    25 1   
    11     4     5 1   
    12     4    26 1   
    13     4    27 1   
    14     5     6 1   
    15     5    28 1   
    16     5    29 1   
    17     6     7 1   
    18     6    36 2   
    19     7     8 1   
    20     7     9 2   
    21     8    14 2   
    22     9    10 1   
    23     9    15 1   
    24    10    11 ar  
    25    11    30 1   
    26    12    13 ar  
    27    12    19 1   
    28    13    31 1   
    29    15    32 1   
    30    16    17 1   
    31    16    18 1   
    32    19    20 2   
    33    19    21 2   
    34    19    22 1   
    35    22    33 1   
    36    22    34 1   
    37    22    35 1   
@<TRIPOS>SUBSTRUCTURE
     1 92L         1 TEMP              0 ****  ****    0 ROOT
