@<TRIPOS>MOLECULE
92L
   36    37     1     0     0
SMALL
bcc


@<TRIPOS>ATOM
      1 C10         -1.8240     1.0180     0.9150 ca         1 92L       0.002000
      2 C13         -0.6030    -0.3410    -1.1500 ca         1 92L      -0.144200
      3 C1           3.3250    -1.5940     1.7570 c6         1 92L      -0.177900
      4 C2           4.3740    -0.5650     2.1330 c6         1 92L      -0.063400
      5 C3           5.0150    -0.0110     0.8740 c6         1 92L      -0.177900
      6 C4           4.0160     0.6230    -0.0640 c          1 92L       0.600800
      7 C5           2.6200     0.1510     0.0320 ce         1 92L      -0.364400
      8 C6           2.2990    -1.0760     0.7810 c          1 92L       0.600800
      9 C7           1.6020     0.8260    -0.5830 cf         1 92L       0.291900
     10 C8           0.1590     0.5140    -0.3600 ca         1 92L      -0.022800
     11 C9          -0.4700     1.1930     0.6730 ca         1 92L      -0.140000
     12 C11         -2.5500     0.1610     0.1080 ca         1 92L      -0.261500
     13 C12         -1.9500    -0.5400    -0.9250 ca         1 92L       0.023000
     14 O14          1.2520    -1.6770     0.6160 o          1 92L      -0.535600
     15 O16          1.8150     1.9150    -1.2800 oh         1 92L      -0.423100
     16 N17          0.0350    -1.0840    -2.2230 no         1 92L       0.318200
     17 O18          1.1050    -0.6810    -2.6130 o          1 92L      -0.189000
     18 O19         -0.5360    -2.0490    -2.6640 o          1 92L      -0.189000
     19 S20         -4.2920    -0.0690     0.4100 sy         1 92L       1.089300
     20 O21         -4.6600    -1.3910    -0.0870 o          1 92L      -0.577300
     21 O22         -4.5460     0.2630     1.8070 o          1 92L      -0.577300
     22 C23         -5.0530     1.1620    -0.6190 c3         1 92L      -0.227300
     23 H1          -2.2930     1.5520     1.7310 ha         1 92L       0.169000
     24 H2           3.8060    -2.4600     1.2890 hc         1 92L       0.074200
     25 H3           2.7930    -1.9750     2.6310 hc         1 92L       0.074200
     26 H4           3.9240     0.2430     2.7150 hc         1 92L       0.050700
     27 H5           5.1320    -1.0240     2.7680 hc         1 92L       0.050700
     28 H6           5.7880     0.7260     1.0950 hc         1 92L       0.074200
     29 H7           5.5090    -0.8230     0.3250 hc         1 92L       0.074200
     30 H10          0.1050     1.8510     1.3110 ha         1 92L       0.159000
     31 H11         -2.5190    -1.2230    -1.5410 ha         1 92L       0.194000
     32 H12          0.9880     2.3210    -1.5760 ho         1 92L       0.441000
     33 H13         -4.7130     2.1490    -0.3140 h1         1 92L       0.106700
     34 H14         -4.7950     0.9740    -1.6590 h1         1 92L       0.106700
     35 H15         -6.1300     1.0770    -0.4790 h1         1 92L       0.106700
     36 O15          4.3720     1.4710    -0.8590 o          1 92L      -0.535600
@<TRIPOS>BOND
     1     1    11 ar  
     2     1    12 ar  
     3     1    23 1   
     4     2    10 ar  
     5     2    13 ar  
     6     2    16 1   
     7     3     4 1   
     8     3     8 1   
     9     3    24 1   
    10     3    25 1   
    11     4     5 1   
    12     4    26 1   
    13     4    27 1   
    14     5     6 1   
    15     5    28 1   
    16     5    29 1   
    17     6     7 1   
    18     6    36 2   
    19     7     8 1   
    20     7     9 2   
    21     8    14 2   
    22     9    10 1   
    23     9    15 1   
    24    10    11 ar  
    25    11    30 1   
    26    12    13 ar  
    27    12    19 1   
    28    13    31 1   
    29    15    32 1   
    30    16    17 1   
    31    16    18 1   
    32    19    20 2   
    33    19    21 2   
    34    19    22 1   
    35    22    33 1   
    36    22    34 1   
    37    22    35 1   
@<TRIPOS>SUBSTRUCTURE
     1 92L         1 TEMP              0 ****  ****    0 ROOT
