@<TRIPOS>MOLECULE
92O
   37    39     1     0     0
SMALL
No Charge or Current Charge


@<TRIPOS>ATOM
      1 C1           4.7890    -1.1790    -0.9830 c3         1 92O      -0.089100
      2 N1           1.3200    -1.7030    -0.1540 na         1 92O      -0.226700
      3 C2           4.2240    -0.8750     0.4170 c3         1 92O      -0.026100
      4 N2          -4.8480    -0.0130     0.2470 n7         1 92O      -0.862400
      5 C3           3.0240     0.0650     0.3650 ca         1 92O      -0.097300
      6 C4           3.1880     1.4530     0.5790 ca         1 92O      -0.090000
      7 C5           2.0770     2.3270     0.5230 ca         1 92O      -0.142000
      8 C6           0.7890     1.8240     0.2530 ca         1 92O      -0.062000
      9 C7           0.6520     0.4440     0.0490 ca         1 92O      -0.095800
     10 C8          -0.5220    -0.3310    -0.2470 cc         1 92O      -0.131400
     11 C9          -0.0780    -1.6480    -0.3690 cd         1 92O      -0.159100
     12 C10          1.7240    -0.4040     0.0980 ca         1 92O      -0.039200
     13 C11         -1.9620     0.1350    -0.3860 c6         1 92O       0.013500
     14 C12         -2.8950    -0.9400    -1.0120 c6         1 92O      -0.071900
     15 C13         -4.3540    -0.4250    -1.0890 c6         1 92O       0.159300
     16 C14         -3.9980     1.0260     0.8790 c6         1 92O       0.159300
     17 C15         -2.5250     0.5610     0.9960 c6         1 92O      -0.071900
     18 H11C         5.6520    -1.8520    -0.9100 hc         1 92O       0.034033
     19 H12C         4.0300    -1.6580    -1.6130 hc         1 92O       0.034033
     20 H13C         5.1140    -0.2540    -1.4760 hc         1 92O       0.034033
     21 H21C         3.9500    -1.8170     0.9060 hc         1 92O       0.042200
     22 H22C         5.0210    -0.4380     1.0310 hc         1 92O       0.042200
     23 H9          -0.6470    -2.5480    -0.5840 h4         1 92O       0.211000
     24 H2          -5.8030     0.3550     0.1490 hn         1 92O       0.408000
     25 H131        -5.0030    -1.2170    -1.4910 h1         1 92O       0.026950
     26 H132        -4.4050     0.4310    -1.7780 h1         1 92O       0.026950
     27 H141        -4.0430     1.9470     0.2780 h1         1 92O       0.026950
     28 H142        -4.3910     1.2620     1.8780 h1         1 92O       0.026950
     29 H4           4.1760     1.8580     0.7850 ha         1 92O       0.107000
     30 H5           2.2180     3.3930     0.6850 ha         1 92O       0.109000
     31 H6          -0.0700     2.4880     0.2010 ha         1 92O       0.113000
     32 H11         -1.9770     1.0150    -1.0440 hc         1 92O       0.047700
     33 H121        -2.5450    -1.2060    -2.0180 hc         1 92O       0.048200
     34 H122        -2.8760    -1.8590    -0.4120 hc         1 92O       0.048200
     35 H151        -2.4610    -0.2800     1.7010 hc         1 92O       0.048200
     36 H152        -1.9210     1.3710     1.4230 hc         1 92O       0.048200
     37 H1           1.9100    -2.5290    -0.1790 hn         1 92O       0.349000
@<TRIPOS>BOND
     1     1     3 1   
     2     1    18 1   
     3     1    19 1   
     4     1    20 1   
     5     2    11 1   
     6     2    12 1   
     7     2    37 1   
     8     3     5 1   
     9     3    21 1   
    10     3    22 1   
    11     4    15 1   
    12     4    16 1   
    13     4    24 1   
    14     5     6 ar  
    15     5    12 ar  
    16     6     7 ar  
    17     6    29 1   
    18     7     8 ar  
    19     7    30 1   
    20     8     9 ar  
    21     8    31 1   
    22     9    10 1   
    23     9    12 ar  
    24    10    11 2   
    25    10    13 1   
    26    11    23 1   
    27    13    14 1   
    28    13    17 1   
    29    13    32 1   
    30    14    15 1   
    31    14    33 1   
    32    14    34 1   
    33    15    25 1   
    34    15    26 1   
    35    16    17 1   
    36    16    27 1   
    37    16    28 1   
    38    17    35 1   
    39    17    36 1   
@<TRIPOS>SUBSTRUCTURE
     1 92O         1 TEMP              0 ****  ****    0 ROOT
