@<TRIPOS>MOLECULE
92O
   37    39     1     0     0
SMALL
abcg2


@<TRIPOS>ATOM
      1 C1           4.7020    -1.2000    -1.0040 c3         1 92O      -0.089100
      2 N1           1.3010    -1.6570    -0.1250 na         1 92O      -0.226700
      3 C2           4.2110    -0.8470     0.4000 c3         1 92O      -0.026100
      4 N2          -4.7750    -0.0350     0.2300 n7         1 92O      -0.862400
      5 C3           3.0300     0.0810     0.3800 ca         1 92O      -0.097300
      6 C4           3.1510     1.4450     0.5820 ca         1 92O      -0.090000
      7 C5           2.0470     2.3120     0.5200 ca         1 92O      -0.142000
      8 C6           0.7790     1.8350     0.2600 ca         1 92O      -0.062000
      9 C7           0.6090     0.4600     0.0550 ca         1 92O      -0.095800
     10 C8          -0.5310    -0.3650    -0.2290 cc         1 92O      -0.131400
     11 C9          -0.0530    -1.6420    -0.3280 cd         1 92O      -0.159100
     12 C10          1.7370    -0.3860     0.1160 ca         1 92O      -0.039200
     13 C11         -1.9450     0.1050    -0.3560 c6         1 92O       0.013500
     14 C12         -2.8710    -0.9220    -1.0070 c6         1 92O      -0.071900
     15 C13         -4.2910    -0.3840    -1.0940 c6         1 92O       0.159300
     16 C14         -3.9670     1.0060     0.8390 c6         1 92O       0.159300
     17 C15         -2.5320     0.5260     0.9990 c6         1 92O      -0.071900
     18 H11C         5.5430    -1.8920    -0.9590 hc         1 92O       0.034033
     19 H12C         3.9180    -1.6700    -1.5990 hc         1 92O       0.034033
     20 H13C         5.0300    -0.3080    -1.5370 hc         1 92O       0.034033
     21 H21C         3.9570    -1.7640     0.9400 hc         1 92O       0.042200
     22 H22C         5.0250    -0.3820     0.9610 hc         1 92O       0.042200
     23 H9          -0.5770    -2.5620    -0.5350 h4         1 92O       0.211000
     24 H2          -5.7350     0.2770     0.1650 hn         1 92O       0.408000
     25 H131        -4.9500    -1.1410    -1.5240 h1         1 92O       0.026950
     26 H132        -4.3000     0.4760    -1.7850 h1         1 92O       0.026950
     27 H141        -3.9610     1.9370     0.2460 h1         1 92O       0.026950
     28 H142        -4.3900     1.2560     1.8150 h1         1 92O       0.026950
     29 H4           4.1310     1.8560     0.7970 ha         1 92O       0.107000
     30 H5           2.2000     3.3720     0.6830 ha         1 92O       0.109000
     31 H6          -0.0640     2.5130     0.2160 ha         1 92O       0.113000
     32 H11         -1.9490     0.9980    -0.9980 hc         1 92O       0.047700
     33 H121        -2.5110    -1.1790    -2.0070 hc         1 92O       0.048200
     34 H122        -2.8770    -1.8440    -0.4180 hc         1 92O       0.048200
     35 H151        -2.5020    -0.3280     1.6830 hc         1 92O       0.048200
     36 H152        -1.9280     1.3190     1.4460 hc         1 92O       0.048200
     37 H1           1.8690    -2.4870    -0.1300 hn         1 92O       0.349000
@<TRIPOS>BOND
     1     1     3 1   
     2     1    18 1   
     3     1    19 1   
     4     1    20 1   
     5     2    11 1   
     6     2    12 1   
     7     2    37 1   
     8     3     5 1   
     9     3    21 1   
    10     3    22 1   
    11     4    15 1   
    12     4    16 1   
    13     4    24 1   
    14     5     6 ar  
    15     5    12 ar  
    16     6     7 ar  
    17     6    29 1   
    18     7     8 ar  
    19     7    30 1   
    20     8     9 ar  
    21     8    31 1   
    22     9    10 1   
    23     9    12 ar  
    24    10    11 2   
    25    10    13 1   
    26    11    23 1   
    27    13    14 1   
    28    13    17 1   
    29    13    32 1   
    30    14    15 1   
    31    14    33 1   
    32    14    34 1   
    33    15    25 1   
    34    15    26 1   
    35    16    17 1   
    36    16    27 1   
    37    16    28 1   
    38    17    35 1   
    39    17    36 1   
@<TRIPOS>SUBSTRUCTURE
     1 92O         1 TEMP              0 ****  ****    0 ROOT
