@<TRIPOS>MOLECULE
92P
   21    22     1     0     0
SMALL
No Charge or Current Charge


@<TRIPOS>ATOM
      1 C1          -2.6090     1.7120    -0.0000 ca         1 92P      -0.188000
      2 C2          -3.4420     0.5720    -0.0140 ca         1 92P       0.354900
      3 N3          -2.9630    -0.7000    -0.0260 nb         1 92P      -0.678000
      4 C4          -1.2110     1.5460     0.0000 ca         1 92P      -0.018000
      5 N5          -0.8690    -2.0000    -0.0370 na         1 92P      -0.317400
      6 C6           0.5160    -1.7240    -0.0320 cc         1 92P      -0.072100
      7 C7           0.5870    -0.3380    -0.0170 cd         1 92P      -0.215400
      8 C8          -0.7500     0.2230    -0.0130 ca         1 92P      -0.091800
      9 C9          -1.6240    -0.8440    -0.0260 ca         1 92P       0.354500
     10 C10          1.8690     0.4180    -0.0070 c          1 92P       0.638300
     11 O11          1.9290     1.6410     0.0060 o          1 92P      -0.497000
     12 O12          2.9810    -0.3860    -0.0140 os         1 92P      -0.450100
     13 C13          4.2760     0.2430    -0.0060 c3         1 92P       0.155900
     14 H1          -3.0480     2.7050     0.0100 ha         1 92P       0.125000
     15 H2          -4.5260     0.6800    -0.0140 h4         1 92P       0.020100
     16 H4          -0.5370     2.3990     0.0100 ha         1 92P       0.143000
     17 H5          -1.2790    -2.9250    -0.0480 hn         1 92P       0.365000
     18 H6           1.2910    -2.4880    -0.0390 h4         1 92P       0.230000
     19 H131         4.4080     0.8800    -0.8900 h1         1 92P       0.046700
     20 H132         4.4050     0.8610     0.8920 h1         1 92P       0.046700
     21 H133         5.0680    -0.5160    -0.0130 h1         1 92P       0.046700
@<TRIPOS>BOND
     1     1     2 ar  
     2     1     4 ar  
     3     1    14 1   
     4     2     3 ar  
     5     2    15 1   
     6     3     9 ar  
     7     4     8 ar  
     8     4    16 1   
     9     5     6 1   
    10     5     9 1   
    11     5    17 1   
    12     6     7 2   
    13     6    18 1   
    14     7     8 1   
    15     7    10 1   
    16     8     9 ar  
    17    10    11 2   
    18    10    12 1   
    19    12    13 1   
    20    13    19 1   
    21    13    20 1   
    22    13    21 1   
@<TRIPOS>SUBSTRUCTURE
     1 92P         1 TEMP              0 ****  ****    0 ROOT
