@<TRIPOS>MOLECULE
92P
   21    22     1     0     0
SMALL
bcc


@<TRIPOS>ATOM
      1 C1          -2.6020     1.6670    -0.0080 ca         1 92P      -0.271300
      2 C2          -3.3920     0.5130    -0.0190 ca         1 92P       0.420200
      3 N3          -2.9030    -0.7190    -0.0280 nb         1 92P      -0.678000
      4 C4          -1.2210     1.5640    -0.0040 ca         1 92P      -0.036000
      5 N5          -0.8560    -1.9530    -0.0320 na         1 92P      -0.267100
      6 C6           0.4620    -1.6600    -0.0250 cc         1 92P      -0.022100
      7 C7           0.6360    -0.2950    -0.0130 cd         1 92P      -0.215400
      8 C8          -0.6760     0.2830    -0.0120 ca         1 92P      -0.157100
      9 C9          -1.5850    -0.7950    -0.0240 ca         1 92P       0.419800
     10 C10          1.8930     0.4310    -0.0000 c          1 92P       0.687300
     11 O11          1.9770     1.6390     0.0320 o          1 92P      -0.546000
     12 O12          2.9480    -0.3770    -0.0280 os         1 92P      -0.426900
     13 C13          4.2400     0.2260    -0.0120 c3         1 92P       0.132700
     14 H1          -3.0820     2.6360    -0.0020 ha         1 92P       0.143000
     15 H2          -4.4720     0.6030    -0.0200 h4         1 92P       0.020100
     16 H4          -0.5950     2.4450     0.0050 ha         1 92P       0.161000
     17 H5          -1.2410    -2.8850    -0.0360 hn         1 92P       0.314700
     18 H6           1.1980    -2.4470    -0.0290 h4         1 92P       0.180000
     19 H131         4.3890     0.8780    -0.8720 h1         1 92P       0.046700
     20 H132         4.4020     0.7980     0.9020 h1         1 92P       0.046700
     21 H133         4.9520    -0.5920    -0.0540 h1         1 92P       0.046700
@<TRIPOS>BOND
     1     1     2 ar  
     2     1     4 ar  
     3     1    14 1   
     4     2     3 ar  
     5     2    15 1   
     6     3     9 ar  
     7     4     8 ar  
     8     4    16 1   
     9     5     6 1   
    10     5     9 1   
    11     5    17 1   
    12     6     7 2   
    13     6    18 1   
    14     7     8 1   
    15     7    10 1   
    16     8     9 ar  
    17    10    11 2   
    18    10    12 1   
    19    12    13 1   
    20    13    19 1   
    21    13    20 1   
    22    13    21 1   
@<TRIPOS>SUBSTRUCTURE
     1 92P         1 TEMP              0 ****  ****    0 ROOT
