@<TRIPOS>MOLECULE
92Q
   53    56     1     0     0
SMALL
bcc


@<TRIPOS>ATOM
      1 CAV          7.8800    -2.2170    -0.8500 c5         1 92Q      -0.128400
      2 CAU          9.1110    -1.5330    -0.2000 c5         1 92Q       0.136800
      3 NAT          8.7320    -1.1560     1.1650 n7         1 92Q      -0.775200
      4 CAS          7.5770    -1.9790     1.4870 c5         1 92Q       0.126800
      5 CAR          6.7660    -2.0700     0.1880 c5         1 92Q       0.077700
      6 NAQ          6.0240    -0.8440    -0.0570 ns         1 92Q      -0.576900
      7 CAP          4.8720    -0.5530     0.5680 c          1 92Q       0.674700
      8 OAW          4.3500    -1.2980     1.3860 o          1 92Q      -0.588100
      9 CAO          4.2450     0.7530     0.1900 ca         1 92Q      -0.122600
     10 CAX          2.8540     0.8230     0.2000 ca         1 92Q      -0.099000
     11 CAN          5.0100     1.8680    -0.1340 ca         1 92Q      -0.135000
     12 CAM          4.3710     3.0570    -0.4590 ca         1 92Q      -0.105000
     13 CAL          2.9920     3.1300    -0.4790 ca         1 92Q      -0.169000
     14 CAK          2.2190     2.0100    -0.1550 ca         1 92Q       0.157600
     15 NAJ          0.8350     2.1690    -0.2230 nu         1 92Q      -0.727300
     16 CAI         -0.1380     1.2610    -0.0030 cc         1 92Q       0.735300
     17 SAY         -1.7920     1.6960    -0.3350 ss         1 92Q      -0.254300
     18 NAH          0.0240     0.0460     0.4380 nd         1 92Q      -0.720000
     19 CAG         -1.1640    -0.5940     0.5380 cd         1 92Q       0.466200
     20 CAF         -2.2750     0.1070     0.1820 cc         1 92Q      -0.252000
     21 CAE         -3.6460    -0.4120     0.2190 c          1 92Q       0.729700
     22 OAZ         -3.8680    -1.5770     0.5030 o          1 92Q      -0.571100
     23 NAD         -4.6380     0.4640    -0.0830 ns         1 92Q      -0.494100
     24 CAC         -5.9920     0.0760    -0.1040 ca         1 92Q       0.051600
     25 CAB         -6.4800    -0.7290    -1.1310 ca         1 92Q       0.041400
     26 CL          -5.4180    -1.2370    -2.3960 cl         1 92Q      -0.093400
     27 CBE         -7.8100    -1.1150    -1.1730 ca         1 92Q      -0.119000
     28 CBD         -8.6650    -0.6760    -0.1750 ca         1 92Q      -0.116000
     29 CBC         -8.1940     0.1350     0.8460 ca         1 92Q      -0.122000
     30 CBA         -6.8570     0.5160     0.9010 ca         1 92Q      -0.071300
     31 CBB         -6.3480     1.3870     2.0100 c3         1 92Q      -0.048800
     32 H1           7.6100    -1.7860    -1.8160 hc         1 92Q       0.055700
     33 H2           8.0720    -3.2760    -1.0220 hc         1 92Q       0.055700
     34 H3           9.9520    -2.2290    -0.1770 h1         1 92Q       0.050700
     35 H4           9.4410    -0.6540    -0.7530 h1         1 92Q       0.050700
     36 H5           8.4370    -0.1880     1.1650 hn         1 92Q       0.344800
     37 H7           7.9030    -2.9850     1.7690 h1         1 92Q       0.071200
     38 H8           7.0170    -1.5650     2.3250 h1         1 92Q       0.071200
     39 H9           6.0800    -2.9190     0.1820 h1         1 92Q       0.082700
     40 H10          6.3150    -0.2630    -0.8260 hn         1 92Q       0.315500
     41 H11          2.2780    -0.0480     0.4700 ha         1 92Q       0.193000
     42 H12          6.0920     1.8320    -0.1090 ha         1 92Q       0.134000
     43 H13          4.9530     3.9360    -0.7000 ha         1 92Q       0.136000
     44 H14          2.5070     4.0600    -0.7500 ha         1 92Q       0.130000
     45 H15          0.5310     3.0800    -0.5310 hn         1 92Q       0.450800
     46 H16         -1.1880    -1.6150     0.8940 h4         1 92Q       0.066100
     47 H17         -4.4400     1.4490    -0.1860 hn         1 92Q       0.325500
     48 H18         -8.1710    -1.7400    -1.9780 ha         1 92Q       0.150000
     49 H19         -9.7060    -0.9690    -0.1990 ha         1 92Q       0.137000
     50 H20         -8.8720     0.4720     1.6200 ha         1 92Q       0.136000
     51 H21         -6.0500     2.3710     1.6430 hc         1 92Q       0.046033
     52 H22         -7.1190     1.5400     2.7640 hc         1 92Q       0.046033
     53 H23         -5.4780     0.9500     2.5010 hc         1 92Q       0.046033
@<TRIPOS>BOND
     1     1     2 1   
     2     1     5 1   
     3     1    32 1   
     4     1    33 1   
     5     2     3 1   
     6     2    34 1   
     7     2    35 1   
     8     3     4 1   
     9     3    36 1   
    10     4     5 1   
    11     4    37 1   
    12     4    38 1   
    13     5     6 1   
    14     5    39 1   
    15     6     7 1   
    16     6    40 1   
    17     7     8 2   
    18     7     9 1   
    19     9    10 ar  
    20     9    11 ar  
    21    10    14 ar  
    22    10    41 1   
    23    11    12 ar  
    24    11    42 1   
    25    12    13 ar  
    26    12    43 1   
    27    13    14 ar  
    28    13    44 1   
    29    14    15 1   
    30    15    16 1   
    31    15    45 1   
    32    16    17 1   
    33    16    18 2   
    34    17    20 1   
    35    18    19 1   
    36    19    20 2   
    37    19    46 1   
    38    20    21 1   
    39    21    22 2   
    40    21    23 1   
    41    23    24 1   
    42    23    47 1   
    43    24    25 ar  
    44    24    30 ar  
    45    25    26 1   
    46    25    27 ar  
    47    27    28 ar  
    48    27    48 1   
    49    28    29 ar  
    50    28    49 1   
    51    29    30 ar  
    52    29    50 1   
    53    30    31 1   
    54    31    51 1   
    55    31    52 1   
    56    31    53 1   
@<TRIPOS>SUBSTRUCTURE
     1 92Q         1 TEMP              0 ****  ****    0 ROOT
