@<TRIPOS>MOLECULE
92Q
   53    56     1     0     0
SMALL
No Charge or Current Charge


@<TRIPOS>ATOM
      1 CAV          8.4710    -1.6670    -0.3560 c5         1 92Q      -0.128400
      2 CAU          9.4630    -1.9430     0.7960 c5         1 92Q       0.136800
      3 NAT          8.8820    -1.1420     1.8910 n7         1 92Q      -0.830400
      4 CAS          7.4510    -1.5490     1.8840 c5         1 92Q       0.126800
      5 CAR          7.0980    -1.8010     0.3760 c5         1 92Q       0.077700
      6 NAQ          6.3170    -0.6370    -0.0780 ns         1 92Q      -0.509900
      7 CAP          4.9590    -0.6040     0.1840 c          1 92Q       0.607700
      8 OAW          4.3930    -1.5140     0.7780 o          1 92Q      -0.588100
      9 CAO          4.2090     0.6220    -0.3020 ca         1 92Q      -0.122600
     10 CAX          2.8150     0.7150    -0.0770 ca         1 92Q      -0.081000
     11 CAN          4.8550     1.6900    -0.9720 ca         1 92Q      -0.117000
     12 CAM          4.1230     2.8120    -1.3950 ca         1 92Q      -0.087000
     13 CAL          2.7410     2.8830    -1.1600 ca         1 92Q      -0.151000
     14 CAK          2.0770     1.8320    -0.5110 ca         1 92Q       0.296000
     15 NAJ          0.7050     1.9480    -0.2810 nu         1 92Q      -0.920900
     16 CAI         -0.3260     1.0600    -0.3200 cc         1 92Q       0.735300
     17 SAY         -1.9830     1.5300    -0.0500 ss         1 92Q      -0.109400
     18 NAH         -0.1000    -0.2020    -0.6110 nd         1 92Q      -0.720000
     19 CAG         -1.2990    -0.9030    -0.6160 cd         1 92Q       0.400900
     20 CAF         -2.4050    -0.1390    -0.3360 cc         1 92Q      -0.331600
     21 CAE         -3.7600    -0.7030    -0.2950 c          1 92Q       0.662700
     22 OAZ         -3.9990    -1.8880    -0.4920 o          1 92Q      -0.571100
     23 NAD         -4.7310     0.2320     0.0140 ns         1 92Q      -0.168000
     24 CAC         -6.1410     0.0890     0.0940 ca         1 92Q      -0.041000
     25 CAB         -6.9000    -0.3990    -0.9990 ca         1 92Q       0.133000
     26 Cl          -6.1540    -0.7830    -2.5530 cl         1 92Q      -0.185000
     27 CBE         -8.2940    -0.5290    -0.8880 ca         1 92Q      -0.101000
     28 CBD         -8.9450    -0.1680     0.3020 ca         1 92Q      -0.098000
     29 CBC         -8.2020     0.3370     1.3800 ca         1 92Q      -0.104000
     30 CBA         -6.8030     0.4750     1.2830 ca         1 92Q      -0.071300
     31 CBB         -6.0200     1.0260     2.4730 c3         1 92Q      -0.048800
     32 H1           8.6460    -0.6690    -0.7760 hc         1 92Q       0.055700
     33 H2           8.5760    -2.3860    -1.1760 hc         1 92Q       0.055700
     34 H3           9.4890    -3.0110     1.0580 h1         1 92Q       0.050700
     35 H4          10.4860    -1.6250     0.5490 h1         1 92Q       0.050700
     36 H5           8.9350    -0.1530     1.6170 hn         1 92Q       0.400000
     37 H7           7.3240    -2.4850     2.4480 h1         1 92Q       0.071200
     38 H8           6.8060    -0.7970     2.3620 h1         1 92Q       0.071200
     39 H9           6.6080    -2.7710     0.2100 h1         1 92Q       0.082700
     40 H10          6.7140     0.1480    -0.5760 hn         1 92Q       0.315500
     41 H11          2.3000    -0.0830     0.4480 ha         1 92Q       0.175000
     42 H12          5.9240     1.6710    -1.1710 ha         1 92Q       0.116000
     43 H13          4.6300     3.6290    -1.9050 ha         1 92Q       0.118000
     44 H14          2.1870     3.7570    -1.4920 ha         1 92Q       0.112000
     45 H15          0.3550     2.9020    -0.2890 hn         1 92Q       0.506000
     46 H16         -1.2980    -1.9660    -0.8330 h4         1 92Q       0.066100
     47 H17         -4.3810     1.1590     0.2190 hn         1 92Q       0.159000
     48 H18         -8.8720    -0.8990    -1.7320 ha         1 92Q       0.132000
     49 H19        -10.0250    -0.2690     0.3840 ha         1 92Q       0.119000
     50 H20         -8.7180     0.6220     2.2940 ha         1 92Q       0.118000
     51 H21         -5.4930     1.9490     2.2050 hc         1 92Q       0.046033
     52 H22         -6.6750     1.2570     3.3210 hc         1 92Q       0.046033
     53 H23         -5.2750     0.3020     2.8240 hc         1 92Q       0.046033
@<TRIPOS>BOND
     1     1     2 1   
     2     1     5 1   
     3     1    32 1   
     4     1    33 1   
     5     2     3 1   
     6     2    34 1   
     7     2    35 1   
     8     3     4 1   
     9     3    36 1   
    10     4     5 1   
    11     4    37 1   
    12     4    38 1   
    13     5     6 1   
    14     5    39 1   
    15     6     7 1   
    16     6    40 1   
    17     7     8 2   
    18     7     9 1   
    19     9    10 ar  
    20     9    11 ar  
    21    10    14 ar  
    22    10    41 1   
    23    11    12 ar  
    24    11    42 1   
    25    12    13 ar  
    26    12    43 1   
    27    13    14 ar  
    28    13    44 1   
    29    14    15 1   
    30    15    16 1   
    31    15    45 1   
    32    16    17 1   
    33    16    18 2   
    34    17    20 1   
    35    18    19 1   
    36    19    20 2   
    37    19    46 1   
    38    20    21 1   
    39    21    22 2   
    40    21    23 1   
    41    23    24 1   
    42    23    47 1   
    43    24    25 ar  
    44    24    30 ar  
    45    25    26 1   
    46    25    27 ar  
    47    27    28 ar  
    48    27    48 1   
    49    28    29 ar  
    50    28    49 1   
    51    29    30 ar  
    52    29    50 1   
    53    30    31 1   
    54    31    51 1   
    55    31    52 1   
    56    31    53 1   
@<TRIPOS>SUBSTRUCTURE
     1 92Q         1 TEMP              0 ****  ****    0 ROOT
