@<TRIPOS>MOLECULE
92R
   43    45     1     0     0
SMALL
abcg2


@<TRIPOS>ATOM
      1 O1           2.8170    -3.2040    -1.3170 o          1 92R      -0.560000
      2 C9           2.4210    -2.1170    -0.9160 c          1 92R       0.570600
      3 C5           3.3000    -1.0360    -0.4690 ca         1 92R      -0.136600
      4 C4           4.6850    -1.2360    -0.4790 ca         1 92R      -0.084000
      5 C3           5.5160    -0.2230    -0.0640 ca         1 92R      -0.095000
      6 C2           4.9920     1.0020     0.3660 ca         1 92R      -0.176000
      7 N            1.0840    -1.8320    -0.8710 ns         1 92R      -0.381100
      8 C8           0.5250    -0.6500    -0.4520 cc         1 92R       0.104400
      9 C7           1.3290     0.3580    -0.0410 cd         1 92R      -0.225200
     10 C6           2.7480     0.1830    -0.0470 ca         1 92R      -0.012800
     11 C1           3.6270     1.2110     0.3790 ca         1 92R       0.131100
     12 O            3.0370     2.3500     0.7760 os         1 92R      -0.341100
     13 C            3.8510     3.4120     1.2330 c3         1 92R       0.148900
     14 C10         -0.9430    -0.5680    -0.4540 ca         1 92R      -0.071800
     15 C18         -1.7280    -1.6680    -0.1150 ca         1 92R      -0.095000
     16 C17         -3.1120    -1.5660    -0.0980 ca         1 92R      -0.099500
     17 C13         -3.7480    -0.3750    -0.4260 ca         1 92R      -0.071300
     18 C12         -2.9600     0.7240    -0.7670 ca         1 92R      -0.099500
     19 C11         -1.5800     0.6310    -0.7820 ca         1 92R      -0.095000
     20 C14         -5.2500    -0.2760    -0.4480 c3         1 92R       0.208100
     21 N1          -5.7380     0.9200     0.2050 n3         1 92R      -0.715600
     22 C16         -7.1390     1.1400    -0.0770 c3         1 92R       0.149100
     23 C15         -5.4900     0.8940     1.6310 c3         1 92R       0.149100
     24 H            0.4710    -2.5550    -1.2250 hn         1 92R       0.327500
     25 H4           5.0910    -2.1810    -0.8120 ha         1 92R       0.139000
     26 H3           6.5880    -0.3630    -0.0650 ha         1 92R       0.116000
     27 H2           5.6760     1.7760     0.6870 ha         1 92R       0.117000
     28 H7           0.8860     1.2720     0.3220 ha         1 92R       0.211000
     29 HC1          4.5230     3.7740     0.4510 h1         1 92R       0.041700
     30 HC2          3.1760     4.2160     1.5170 h1         1 92R       0.041700
     31 HC3          4.4440     3.1220     2.1040 h1         1 92R       0.041700
     32 H18         -1.2710    -2.6060     0.1730 ha         1 92R       0.119500
     33 H11         -0.9920     1.4930    -1.0720 ha         1 92R       0.119500
     34 H17         -3.7010    -2.4290     0.1880 ha         1 92R       0.123000
     35 H12         -3.4360     1.6610    -1.0260 ha         1 92R       0.123000
     36 H141        -5.5800    -0.2480    -1.4910 h1         1 92R       0.040200
     37 H142        -5.6820    -1.1940    -0.0140 h1         1 92R       0.040200
     38 H161        -7.7920     0.3380     0.3010 h1         1 92R       0.032533
     39 H162        -7.4670     2.0750     0.3800 h1         1 92R       0.032533
     40 H163        -7.2980     1.2200    -1.1540 h1         1 92R       0.032533
     41 H151        -4.4230     0.7930     1.8330 h1         1 92R       0.032533
     42 H152        -5.8230     1.8290     2.0840 h1         1 92R       0.032533
     43 H153        -6.0090     0.0680     2.1430 h1         1 92R       0.032533
@<TRIPOS>BOND
     1     1     2 2   
     2     2     3 1   
     3     2     7 1   
     4     3     4 ar  
     5     3    10 ar  
     6     4     5 ar  
     7     4    25 1   
     8     5     6 ar  
     9     5    26 1   
    10     6    11 ar  
    11     6    27 1   
    12     7     8 1   
    13     7    24 1   
    14     8     9 2   
    15     8    14 1   
    16     9    10 1   
    17     9    28 1   
    18    10    11 ar  
    19    11    12 1   
    20    12    13 1   
    21    13    29 1   
    22    13    30 1   
    23    13    31 1   
    24    14    15 ar  
    25    14    19 ar  
    26    15    16 ar  
    27    15    32 1   
    28    16    17 ar  
    29    16    34 1   
    30    17    18 ar  
    31    17    20 1   
    32    18    19 ar  
    33    18    35 1   
    34    19    33 1   
    35    20    21 1   
    36    20    36 1   
    37    20    37 1   
    38    21    22 1   
    39    21    23 1   
    40    22    38 1   
    41    22    39 1   
    42    22    40 1   
    43    23    41 1   
    44    23    42 1   
    45    23    43 1   
@<TRIPOS>SUBSTRUCTURE
     1 92R         1 TEMP              0 ****  ****    0 ROOT
