@<TRIPOS>MOLECULE
92R
   43    45     1     0     0
SMALL
No Charge or Current Charge


@<TRIPOS>ATOM
      1 O1           2.8450    -3.3280    -1.1810 o          1 92R      -0.560000
      2 C9           2.4290    -2.2280    -0.8440 c          1 92R       0.570600
      3 C5           3.3360    -1.0990    -0.4090 ca         1 92R      -0.136600
      4 C4           4.7360    -1.2740    -0.3710 ca         1 92R      -0.084000
      5 C3           5.5700    -0.2220     0.0350 ca         1 92R      -0.095000
      6 C2           5.0190     1.0150     0.4080 ca         1 92R      -0.176000
      7 N            1.0830    -1.9550    -0.8450 ns         1 92R      -0.381100
      8 C8           0.5180    -0.7470    -0.4900 cc         1 92R       0.104400
      9 C7           1.3170     0.2960    -0.0840 cd         1 92R      -0.225200
     10 C6           2.7790     0.1450    -0.0340 ca         1 92R      -0.012800
     11 C1           3.6200     1.2080     0.3760 ca         1 92R       0.131100
     12 O            3.0410     2.4130     0.7360 os         1 92R      -0.341100
     13 C            3.8180     3.5450     1.1650 c3         1 92R       0.148900
     14 C10         -0.9360    -0.5760    -0.5200 ca         1 92R      -0.071800
     15 C18         -1.7810    -1.6020    -0.0480 ca         1 92R      -0.095000
     16 C17         -3.1790    -1.4470    -0.0780 ca         1 92R      -0.099500
     17 C13         -3.7540    -0.2660    -0.5840 ca         1 92R      -0.071300
     18 C12         -2.9140     0.7580    -1.0600 ca         1 92R      -0.099500
     19 C11         -1.5170     0.6050    -1.0290 ca         1 92R      -0.095000
     20 C14         -5.2710    -0.0940    -0.6190 c3         1 92R       0.208100
     21 N1          -5.7780     0.9260     0.3330 n3         1 92R      -0.715600
     22 C16         -7.2150     1.2180     0.1320 c3         1 92R       0.149100
     23 C15         -5.4610     0.6150     1.7460 c3         1 92R       0.149100
     24 H            0.4860    -2.7130    -1.1460 hn         1 92R       0.327500
     25 H4           5.1780    -2.2270    -0.6560 ha         1 92R       0.139000
     26 H3           6.6490    -0.3660     0.0610 ha         1 92R       0.116000
     27 H2           5.6930     1.8090     0.7180 ha         1 92R       0.117000
     28 H7           0.8600     1.2320     0.2210 ha         1 92R       0.211000
     29 HC1          4.5110     3.8640     0.3760 h1         1 92R       0.041700
     30 HC2          3.1590     4.3900     1.4000 h1         1 92R       0.041700
     31 HC3          4.3950     3.3040     2.0670 h1         1 92R       0.041700
     32 H18         -1.3580    -2.5190     0.3550 ha         1 92R       0.119500
     33 H11         -0.8870     1.4040    -1.4140 ha         1 92R       0.119500
     34 H17         -3.8140    -2.2470     0.2960 ha         1 92R       0.123000
     35 H12         -3.3470     1.6750    -1.4530 ha         1 92R       0.123000
     36 H141        -5.5500     0.1870    -1.6450 h1         1 92R       0.040200
     37 H142        -5.7490    -1.0630    -0.4190 h1         1 92R       0.040200
     38 H161        -7.8280     0.3320     0.3460 h1         1 92R       0.032533
     39 H162        -7.5420     2.0310     0.7930 h1         1 92R       0.032533
     40 H163        -7.4080     1.5270    -0.9040 h1         1 92R       0.032533
     41 H151        -4.3770     0.5220     1.8970 h1         1 92R       0.032533
     42 H152        -5.8200     1.4130     2.4090 h1         1 92R       0.032533
     43 H153        -5.9340    -0.3270     2.0560 h1         1 92R       0.032533
@<TRIPOS>BOND
     1     1     2 2   
     2     2     3 1   
     3     2     7 1   
     4     3     4 ar  
     5     3    10 ar  
     6     4     5 ar  
     7     4    25 1   
     8     5     6 ar  
     9     5    26 1   
    10     6    11 ar  
    11     6    27 1   
    12     7     8 1   
    13     7    24 1   
    14     8     9 2   
    15     8    14 1   
    16     9    10 1   
    17     9    28 1   
    18    10    11 ar  
    19    11    12 1   
    20    12    13 1   
    21    13    29 1   
    22    13    30 1   
    23    13    31 1   
    24    14    15 ar  
    25    14    19 ar  
    26    15    16 ar  
    27    15    32 1   
    28    16    17 ar  
    29    16    34 1   
    30    17    18 ar  
    31    17    20 1   
    32    18    19 ar  
    33    18    35 1   
    34    19    33 1   
    35    20    21 1   
    36    20    36 1   
    37    20    37 1   
    38    21    22 1   
    39    21    23 1   
    40    22    38 1   
    41    22    39 1   
    42    22    40 1   
    43    23    41 1   
    44    23    42 1   
    45    23    43 1   
@<TRIPOS>SUBSTRUCTURE
     1 92R         1 TEMP              0 ****  ****    0 ROOT
