@<TRIPOS>MOLECULE
92S
   57    61     1     0     0
SMALL
bcc


@<TRIPOS>ATOM
      1 N1         -26.5030   -13.2960   143.2990 n3         1 92S      -0.712600
      2 N3         -28.7010   -16.0480   148.5620 nh         1 92S      -0.661000
      3 C4         -27.0960   -13.2590   141.9730 c3         1 92S       0.167800
      4 C5         -27.3890   -11.8510   141.4730 c3         1 92S      -0.068400
      5 C6         -27.9530   -11.8930   140.0620 c3         1 92S      -0.176400
      6 C7         -28.2940   -10.5380   139.4940 c          1 92S       0.585700
      7 C8         -28.8840   -10.4720   138.1270 ca         1 92S      -0.194600
      8 C10        -29.6390   -11.5150   136.0770 ca         1 92S      -0.186000
      9 C13        -29.2450    -9.2270   137.6070 ca         1 92S      -0.057000
     10 C15        -26.8250   -12.8490   145.7200 c5         1 92S      -0.005400
     11 C17        -28.8150   -12.0230   147.2730 ca         1 92S      -0.120000
     12 C20        -28.8310   -14.7340   148.1440 ca         1 92S       0.136600
     13 C21        -27.9490   -14.2600   147.1720 ca         1 92S       0.056600
     14 C22        -26.6270   -16.2280   147.2490 c6         1 92S       0.186800
     15 C24        -29.8000   -16.6700   149.2550 c3         1 92S       0.201100
     16 C1         -25.9810   -14.0960   146.0520 c5         1 92S       0.201500
     17 C2         -25.1590   -14.5910   144.8780 c6         1 92S      -0.064400
     18 C3         -25.9450   -14.6080   143.5810 c6         1 92S       0.168800
     19 O1         -28.1020    -9.5200   140.1250 o          1 92S      -0.520100
     20 C9         -29.0900   -11.6090   137.3460 ca         1 92S      -0.057000
     21 C11        -29.9830   -10.2650   135.6000 ca         1 92S       0.162900
     22 F1         -30.5130   -10.1630   134.3760 f          1 92S      -0.137900
     23 C12        -29.7980    -9.1130   136.3450 ca         1 92S      -0.186000
     24 C14        -27.4640   -12.9440   144.3290 c6         1 92S       0.167800
     25 C16        -27.9030   -12.9380   146.7700 ca         1 92S      -0.108300
     26 C18        -29.7400   -12.4790   148.2080 ca         1 92S      -0.128000
     27 C19        -29.7560   -13.8070   148.6360 ca         1 92S      -0.161000
     28 N2         -26.9950   -15.0360   146.5280 nh         1 92S      -0.626000
     29 C23        -27.9040   -16.9170   147.7160 c6         1 92S       0.206800
     30 H2         -28.0170   -13.8670   141.9280 h1         1 92S       0.026200
     31 H3         -26.3890   -13.7270   141.2820 h1         1 92S       0.026200
     32 H4         -26.4680   -11.2650   141.4960 hc         1 92S       0.062200
     33 H5         -28.1010   -11.3480   142.1310 hc         1 92S       0.062200
     34 H6         -28.8550   -12.5150   140.0320 hc         1 92S       0.060700
     35 H7         -27.2460   -12.3820   139.3830 hc         1 92S       0.060700
     36 H8         -29.7960   -12.3980   135.4720 ha         1 92S       0.154000
     37 H9         -29.0960    -8.3330   138.1980 ha         1 92S       0.146500
     38 H10        -26.2180   -11.9430   145.7820 hc         1 92S       0.074700
     39 H11        -28.8050   -10.9860   146.9610 ha         1 92S       0.134000
     40 H12        -26.0770   -16.9100   146.5990 h1         1 92S       0.043700
     41 H13        -25.9830   -16.0040   148.1120 h1         1 92S       0.043700
     42 H14        -30.0680   -16.1070   150.1490 h1         1 92S       0.033700
     43 H15        -30.7000   -16.7720   148.6360 h1         1 92S       0.033700
     44 H16        -29.4990   -17.6650   149.5810 h1         1 92S       0.033700
     45 H17        -25.3030   -13.8490   146.8860 h1         1 92S       0.036700
     46 H18        -24.7530   -15.5850   145.0840 hc         1 92S       0.050200
     47 H19        -24.3000   -13.9250   144.7650 hc         1 92S       0.050200
     48 H20        -26.7330   -15.3800   143.6300 h1         1 92S       0.034200
     49 H21        -25.2800   -14.8890   142.7620 h1         1 92S       0.034200
     50 H22        -28.8230   -12.5910   137.7150 ha         1 92S       0.146500
     51 H23        -30.0790    -8.1490   135.9440 ha         1 92S       0.154000
     52 H24        -27.9130   -11.9760   144.1020 h1         1 92S       0.041700
     53 H25        -28.2950   -13.6720   144.3530 h1         1 92S       0.041700
     54 H26        -30.4680   -11.7920   148.6230 ha         1 92S       0.128000
     55 H27        -30.4900   -14.1050   149.3740 ha         1 92S       0.129000
     56 H28        -28.4670   -17.2610   146.8380 h1         1 92S       0.043200
     57 H29        -27.6340   -17.8040   148.2920 h1         1 92S       0.043200
@<TRIPOS>BOND
     1     1     3 1   
     2     1    18 1   
     3     1    24 1   
     4     2    12 1   
     5     2    15 1   
     6     2    29 1   
     7     3     4 1   
     8     3    30 1   
     9     3    31 1   
    10     4     5 1   
    11     4    32 1   
    12     4    33 1   
    13     5     6 1   
    14     5    34 1   
    15     5    35 1   
    16     6     7 1   
    17     6    19 2   
    18     7     9 ar  
    19     7    20 ar  
    20     8    20 ar  
    21     8    21 ar  
    22     8    36 1   
    23     9    23 ar  
    24     9    37 1   
    25    10    16 1   
    26    10    24 1   
    27    10    25 1   
    28    10    38 1   
    29    11    25 ar  
    30    11    26 ar  
    31    11    39 1   
    32    12    13 ar  
    33    12    27 ar  
    34    13    25 ar  
    35    13    28 1   
    36    14    28 1   
    37    14    29 1   
    38    14    40 1   
    39    14    41 1   
    40    15    42 1   
    41    15    43 1   
    42    15    44 1   
    43    16    17 1   
    44    16    28 1   
    45    16    45 1   
    46    17    18 1   
    47    17    46 1   
    48    17    47 1   
    49    18    48 1   
    50    18    49 1   
    51    20    50 1   
    52    21    22 1   
    53    21    23 ar  
    54    23    51 1   
    55    24    52 1   
    56    24    53 1   
    57    26    27 ar  
    58    26    54 1   
    59    27    55 1   
    60    29    56 1   
    61    29    57 1   
@<TRIPOS>SUBSTRUCTURE
     1 92S         1 TEMP              0 ****  ****    0 ROOT
