@<TRIPOS>MOLECULE
92S
   57    61     1     0     0
SMALL
No Charge or Current Charge


@<TRIPOS>ATOM
      1 N1         -26.6080   -13.3390   143.2450 n3         1 92S      -0.712600
      2 N3         -28.7300   -16.1370   148.7730 nh         1 92S      -0.799400
      3 C4         -27.2150   -13.2770   141.8920 c3         1 92S       0.167800
      4 C5         -27.5970   -11.8570   141.4130 c3         1 92S      -0.068400
      5 C6         -28.0510   -11.8250   139.9310 c3         1 92S      -0.176400
      6 C7         -28.4490   -10.4420   139.3760 c          1 92S       0.585700
      7 C8         -28.9010   -10.3210   137.9320 ca         1 92S      -0.194600
      8 C10        -29.3980   -11.2970   135.7400 ca         1 92S      -0.168000
      9 C13        -29.2630    -9.0510   137.4190 ca         1 92S      -0.039000
     10 C15        -26.8680   -12.8940   145.7290 c5         1 92S      -0.005400
     11 C17        -28.9060   -12.1450   147.2370 ca         1 92S      -0.102000
     12 C20        -28.8440   -14.7990   148.2830 ca         1 92S       0.275000
     13 C21        -27.9440   -14.3510   147.2880 ca         1 92S       0.195000
     14 C22        -26.5190   -16.3370   147.4320 c6         1 92S       0.186800
     15 C24        -29.6660   -16.7100   149.7650 c3         1 92S       0.201100
     16 C1         -25.9380   -14.1520   146.0350 c5         1 92S       0.201500
     17 C2         -25.1860   -14.6910   144.7980 c6         1 92S      -0.064400
     18 C3         -26.0670   -14.6970   143.5340 c6         1 92S       0.168800
     19 O1         -28.4010    -9.4500   140.0950 o          1 92S      -0.520100
     20 C9         -28.9750   -11.4460   137.0730 ca         1 92S      -0.039000
     21 C11        -29.7520   -10.0340   135.2510 ca         1 92S       0.198000
     22 F1         -30.1580    -9.8970   133.9700 f          1 92S      -0.173000
     23 C12        -29.6850    -8.9110   136.0860 ca         1 92S      -0.168000
     24 C14        -27.5440   -12.9180   144.3300 c6         1 92S       0.167800
     25 C16        -27.9500   -13.0700   146.7900 ca         1 92S      -0.108300
     26 C18        -29.8350   -12.5540   148.2190 ca         1 92S      -0.110000
     27 C19        -29.8050   -13.8700   148.7430 ca         1 92S      -0.143000
     28 N2         -26.8850   -15.0650   146.7380 nh         1 92S      -0.764400
     29 C23        -27.7660   -17.0630   148.0760 c6         1 92S       0.206800
     30 H2         -28.1080   -13.9150   141.8520 h1         1 92S       0.026200
     31 H3         -26.5000   -13.6840   141.1640 h1         1 92S       0.026200
     32 H4         -26.7320   -11.1950   141.5420 hc         1 92S       0.062200
     33 H5         -28.4060   -11.4610   142.0370 hc         1 92S       0.062200
     34 H6         -28.8890   -12.5100   139.7540 hc         1 92S       0.060700
     35 H7         -27.2850   -12.2430   139.2670 hc         1 92S       0.060700
     36 H8         -29.4530   -12.1640   135.0860 ha         1 92S       0.136000
     37 H9         -29.2180    -8.1660   138.0510 ha         1 92S       0.128500
     38 H10        -26.3150   -11.9520   145.8070 hc         1 92S       0.074700
     39 H11        -28.9320   -11.1340   146.8350 ha         1 92S       0.116000
     40 H12        -26.0300   -17.0290   146.7310 h1         1 92S       0.043700
     41 H13        -25.7950   -16.1160   148.2290 h1         1 92S       0.043700
     42 H14        -29.6180   -16.1470   150.7070 h1         1 92S       0.033700
     43 H15        -30.6950   -16.6790   149.3830 h1         1 92S       0.033700
     44 H16        -29.4150   -17.7570   149.9810 h1         1 92S       0.033700
     45 H17        -25.1660   -13.8550   146.7590 h1         1 92S       0.036700
     46 H18        -24.7960   -15.6970   144.9970 hc         1 92S       0.050200
     47 H19        -24.3130   -14.0520   144.6110 hc         1 92S       0.050200
     48 H20        -26.8870   -15.4200   143.6620 h1         1 92S       0.034200
     49 H21        -25.4530   -15.0510   142.6930 h1         1 92S       0.034200
     50 H22        -28.7090   -12.4420   137.4190 ha         1 92S       0.128500
     51 H23        -29.9610    -7.9330   135.7000 ha         1 92S       0.136000
     52 H24        -27.9570   -11.9180   144.1380 h1         1 92S       0.041700
     53 H25        -28.3990   -13.6120   144.3580 h1         1 92S       0.041700
     54 H26        -30.5810   -11.8480   148.5790 ha         1 92S       0.110000
     55 H27        -30.5250   -14.1540   149.5040 ha         1 92S       0.111000
     56 H28        -28.3020   -17.5930   147.2750 h1         1 92S       0.043200
     57 H29        -27.3960   -17.8290   148.7730 h1         1 92S       0.043200
@<TRIPOS>BOND
     1     1     3 1   
     2     1    18 1   
     3     1    24 1   
     4     2    12 1   
     5     2    15 1   
     6     2    29 1   
     7     3     4 1   
     8     3    30 1   
     9     3    31 1   
    10     4     5 1   
    11     4    32 1   
    12     4    33 1   
    13     5     6 1   
    14     5    34 1   
    15     5    35 1   
    16     6     7 1   
    17     6    19 2   
    18     7     9 ar  
    19     7    20 ar  
    20     8    20 ar  
    21     8    21 ar  
    22     8    36 1   
    23     9    23 ar  
    24     9    37 1   
    25    10    16 1   
    26    10    24 1   
    27    10    25 1   
    28    10    38 1   
    29    11    25 ar  
    30    11    26 ar  
    31    11    39 1   
    32    12    13 ar  
    33    12    27 ar  
    34    13    25 ar  
    35    13    28 1   
    36    14    28 1   
    37    14    29 1   
    38    14    40 1   
    39    14    41 1   
    40    15    42 1   
    41    15    43 1   
    42    15    44 1   
    43    16    17 1   
    44    16    28 1   
    45    16    45 1   
    46    17    18 1   
    47    17    46 1   
    48    17    47 1   
    49    18    48 1   
    50    18    49 1   
    51    20    50 1   
    52    21    22 1   
    53    21    23 ar  
    54    23    51 1   
    55    24    52 1   
    56    24    53 1   
    57    26    27 ar  
    58    26    54 1   
    59    27    55 1   
    60    29    56 1   
    61    29    57 1   
@<TRIPOS>SUBSTRUCTURE
     1 92S         1 TEMP              0 ****  ****    0 ROOT
