@<TRIPOS>MOLECULE
92T
   51    56     1     0     0
SMALL
bcc


@<TRIPOS>ATOM
      1 C2          -6.3990    -0.2820     1.0920 ca         1 92T       0.647900
      2 C4          -4.7650     1.1680     0.5220 ca         1 92T       0.416300
      3 CAY          3.2820    -0.8290    -1.1730 c          1 92T       0.802500
      4 NAX          4.6020    -1.1890    -1.2260 ns         1 92T      -0.454100
      5 CAW          5.3690    -0.3330    -0.4750 ca         1 92T      -0.003400
      6 CBC          6.7210    -0.2940    -0.2300 ca         1 92T      -0.091000
      7 CBB          7.1850     0.7370     0.5980 ca         1 92T      -0.022000
      8 CBE          8.5770     0.8220     0.8840 cg         1 92T       0.234800
      9 NBF          9.7030     0.8870     1.1250 n1         1 92T      -0.360800
     10 CBA          6.3150     1.6820     1.1490 ca         1 92T      -0.086000
     11 CAZ          4.9530     1.6280     0.8920 ca         1 92T      -0.136000
     12 CAV          4.4900     0.6120     0.0750 ca         1 92T       0.032600
     13 NAU          3.2270     0.2920    -0.3620 n          1 92T      -0.350000
     14 CAN          2.0110     0.9970    -0.0360 cy         1 92T       0.111700
     15 CBH          0.8410     0.1630     0.5270 cy         1 92T      -0.083900
     16 CBG          1.1190     1.4610    -1.2080 cy         1 92T      -0.083900
     17 CAH         -0.0080     0.5280    -0.7210 cy         1 92T      -0.113000
     18 CAE         -1.3200     1.1610    -0.4690 cc         1 92T       0.417800
     19 NAD         -1.6400     2.4150    -0.6380 nd         1 92T      -0.360000
     20 NAC         -2.9330     2.5670    -0.2900 nd         1 92T      -0.345000
     21 CAB         -3.3930     1.4080     0.0870 cc         1 92T       0.335500
     22 N3          -5.1490    -0.0890     0.7030 nb         1 92T      -0.704000
     23 N1          -7.3080     0.6530     1.3170 nb         1 92T      -0.691000
     24 C6          -6.9150     1.9090     1.1310 ca         1 92T       0.429200
     25 C5          -5.6340     2.2340     0.7280 ca         1 92T      -0.319600
     26 NAA         -2.4000     0.4790    -0.0020 na         1 92T      -0.249800
     27 CAG         -2.4150    -0.9080     0.2880 ca         1 92T       0.007800
     28 CAI         -2.7400    -1.8190    -0.7080 ca         1 92T       0.048400
     29 CL1         -3.1890    -1.2410    -2.2690 cl         1 92T      -0.077400
     30 CAJ         -2.7180    -3.1790    -0.4480 ca         1 92T      -0.114000
     31 CAK         -2.3670    -3.6220     0.8200 ca         1 92T      -0.106000
     32 CAL         -2.0390    -2.7160     1.8180 ca         1 92T      -0.123000
     33 CAM         -2.0620    -1.3560     1.5490 ca         1 92T      -0.101000
     34 H1          -6.7050    -1.3120     1.2400 h5         1 92T       0.052100
     35 H2           4.9370    -1.9860    -1.7440 hn         1 92T       0.359500
     36 H3           7.3980    -1.0220    -0.6550 ha         1 92T       0.153000
     37 H4           6.7070     2.4660     1.7810 ha         1 92T       0.148000
     38 H5           4.2920     2.3650     1.3270 ha         1 92T       0.149000
     39 H6           2.2960     1.8160     0.6210 h1         1 92T       0.072700
     40 H7           1.0260    -0.8990     0.6640 hc         1 92T       0.072950
     41 H8           0.4580     0.5700     1.4620 hc         1 92T       0.072950
     42 H9           0.8760     2.5200    -1.1470 hc         1 92T       0.072950
     43 H10          1.4890     1.2480    -2.2090 hc         1 92T       0.072950
     44 H11         -0.1350    -0.3310    -1.3820 hc         1 92T       0.100700
     45 H12         -7.6480     2.6870     1.3120 h4         1 92T       0.030100
     46 H13         -5.3280     3.2590     0.5840 ha         1 92T       0.178000
     47 H14         -2.9730    -3.8840    -1.2260 ha         1 92T       0.154000
     48 H15         -2.3500    -4.6840     1.0230 ha         1 92T       0.141000
     49 H16         -1.7630    -3.0640     2.8030 ha         1 92T       0.142000
     50 H17         -1.8120    -0.6350     2.3170 ha         1 92T       0.146000
     51 OBD          2.3430    -1.3720    -1.7210 o          1 92T      -0.630500
@<TRIPOS>BOND
     1     1    22 ar  
     2     1    23 ar  
     3     1    34 1   
     4     2    21 1   
     5     2    22 ar  
     6     2    25 ar  
     7     3     4 1   
     8     3    13 1   
     9     3    51 2   
    10     4     5 1   
    11     4    35 1   
    12     5     6 ar  
    13     5    12 ar  
    14     6     7 ar  
    15     6    36 1   
    16     7     8 1   
    17     7    10 ar  
    18     8     9 3   
    19    10    11 ar  
    20    10    37 1   
    21    11    12 ar  
    22    11    38 1   
    23    12    13 1   
    24    13    14 1   
    25    14    15 1   
    26    14    16 1   
    27    14    39 1   
    28    15    17 1   
    29    15    40 1   
    30    15    41 1   
    31    16    17 1   
    32    16    42 1   
    33    16    43 1   
    34    17    18 1   
    35    17    44 1   
    36    18    19 2   
    37    18    26 1   
    38    19    20 1   
    39    20    21 2   
    40    21    26 1   
    41    23    24 ar  
    42    24    25 ar  
    43    24    45 1   
    44    25    46 1   
    45    26    27 1   
    46    27    28 ar  
    47    27    33 ar  
    48    28    29 1   
    49    28    30 ar  
    50    30    31 ar  
    51    30    47 1   
    52    31    32 ar  
    53    31    48 1   
    54    32    33 ar  
    55    32    49 1   
    56    33    50 1   
@<TRIPOS>SUBSTRUCTURE
     1 92T         1 TEMP              0 ****  ****    0 ROOT
