@<TRIPOS>MOLECULE
92T
   51    56     1     0     0
SMALL
No Charge or Current Charge


@<TRIPOS>ATOM
      1 C2          -6.4550    -0.4150     0.1010 ca         1 92T       0.121900
      2 C4          -4.7270     1.1110    -0.1120 ca         1 92T       0.088000
      3 CAY          2.9720    -1.4050    -0.2110 c          1 92T       0.593000
      4 NAX          4.1300    -1.5770    -0.9160 ns         1 92T      -0.500600
      5 CAW          5.0340    -0.5230    -0.7690 ca         1 92T      -0.003400
      6 CBC          6.3060    -0.3100    -1.3080 ca         1 92T      -0.073000
      7 CBB          6.9680     0.8890    -0.9500 ca         1 92T      -0.022000
      8 CBE          8.2790     1.1640    -1.4720 cg         1 92T       0.324000
      9 NBF          9.3460     1.3780    -1.8940 n1         1 92T      -0.450000
     10 CBA          6.3440     1.8220    -0.0760 ca         1 92T      -0.068000
     11 CAZ          5.0550     1.5730     0.4510 ca         1 92T      -0.118000
     12 CAV          4.4240     0.3800     0.0790 ca         1 92T       0.032600
     13 NAU          3.1450    -0.1560     0.4290 n          1 92T      -0.283000
     14 CAN          2.2180     0.5550     1.3210 cy         1 92T       0.111700
     15 CBH          0.7580     0.0450     1.5960 cy         1 92T      -0.083900
     16 CBG          1.5020     1.8300     0.7530 cy         1 92T      -0.083900
     17 CAH          0.3420     0.8640     0.3240 cy         1 92T      -0.113000
     18 CAE         -1.0660     1.3450     0.1290 cc         1 92T       0.417800
     19 NAD         -1.3990     2.5780    -0.2240 nd         1 92T      -0.360000
     20 NAC         -2.7760     2.6480    -0.3410 nd         1 92T      -0.345000
     21 CAB         -3.2880     1.4550    -0.0640 cc         1 92T       0.335500
     22 N3          -5.1330    -0.1530     0.1640 nb         1 92T      -0.178000
     23 N1          -7.4340     0.4580    -0.2120 nb         1 92T      -0.165000
     24 C6          -7.0430     1.7170    -0.4900 ca         1 92T       0.100900
     25 C5          -5.6890     2.0910    -0.4530 ca         1 92T      -0.171000
     26 NAA         -2.2280     0.6340     0.2530 na         1 92T      -0.249800
     27 CAG         -2.2830    -0.7210     0.5770 ca         1 92T       0.007800
     28 CAI         -2.0600    -1.7160    -0.4010 ca         1 92T       0.140000
     29 Cl1         -1.7320    -1.2840    -2.0800 cl         1 92T      -0.169000
     30 CAJ         -2.1010    -3.0750    -0.0440 ca         1 92T      -0.096000
     31 CAK         -2.3620    -3.4480     1.2860 ca         1 92T      -0.088000
     32 CAL         -2.5830    -2.4610     2.2610 ca         1 92T      -0.105000
     33 CAM         -2.5420    -1.1010     1.9080 ca         1 92T      -0.083000
     34 H1          -6.7630    -1.4340     0.3270 h5         1 92T       0.052100
     35 H2           4.2960    -2.4010    -1.4850 hn         1 92T       0.473000
     36 H3           6.7640    -1.0380    -1.9740 ha         1 92T       0.135000
     37 H4           6.8600     2.7410     0.1950 ha         1 92T       0.130000
     38 H5           4.5760     2.2840     1.1190 ha         1 92T       0.131000
     39 H6           2.7550     0.7620     2.2540 h1         1 92T       0.072700
     40 H7           0.5910    -1.0350     1.5600 hc         1 92T       0.072950
     41 H8           0.3220     0.4140     2.5330 hc         1 92T       0.072950
     42 H9           1.2250     2.5730     1.5110 hc         1 92T       0.072950
     43 H10          2.0190     2.3470    -0.0630 hc         1 92T       0.072950
     44 H11          0.5540     0.3360    -0.6130 hc         1 92T       0.100700
     45 H12         -7.8240     2.4310    -0.7460 h4         1 92T       0.030100
     46 H13         -5.4000     3.1140    -0.6820 ha         1 92T       0.160000
     47 H14         -1.9290    -3.8370    -0.7990 ha         1 92T       0.136000
     48 H15         -2.3930    -4.5010     1.5600 ha         1 92T       0.123000
     49 H16         -2.7840    -2.7490     3.2910 ha         1 92T       0.124000
     50 H17         -2.7100    -0.3420     2.6690 ha         1 92T       0.128000
     51 OBD          2.0270    -2.1730    -0.1720 o          1 92T      -0.555000
@<TRIPOS>BOND
     1     1    22 ar  
     2     1    23 ar  
     3     1    34 1   
     4     2    21 1   
     5     2    22 ar  
     6     2    25 ar  
     7     3     4 1   
     8     3    13 1   
     9     3    51 2   
    10     4     5 1   
    11     4    35 1   
    12     5     6 ar  
    13     5    12 ar  
    14     6     7 ar  
    15     6    36 1   
    16     7     8 1   
    17     7    10 ar  
    18     8     9 3   
    19    10    11 ar  
    20    10    37 1   
    21    11    12 ar  
    22    11    38 1   
    23    12    13 1   
    24    13    14 1   
    25    14    15 1   
    26    14    16 1   
    27    14    39 1   
    28    15    17 1   
    29    15    40 1   
    30    15    41 1   
    31    16    17 1   
    32    16    42 1   
    33    16    43 1   
    34    17    18 1   
    35    17    44 1   
    36    18    19 2   
    37    18    26 1   
    38    19    20 1   
    39    20    21 2   
    40    21    26 1   
    41    23    24 ar  
    42    24    25 ar  
    43    24    45 1   
    44    25    46 1   
    45    26    27 1   
    46    27    28 ar  
    47    27    33 ar  
    48    28    29 1   
    49    28    30 ar  
    50    30    31 ar  
    51    30    47 1   
    52    31    32 ar  
    53    31    48 1   
    54    32    33 ar  
    55    32    49 1   
    56    33    50 1   
@<TRIPOS>SUBSTRUCTURE
     1 92T         1 TEMP              0 ****  ****    0 ROOT
