@<TRIPOS>MOLECULE
92U
   42    44     1     0     0
SMALL
No Charge or Current Charge


@<TRIPOS>ATOM
      1 C10          2.3140     0.4200     0.9210 c          1 92U       0.653300
      2 C13          4.7450     0.2890     0.3500 cc         1 92U       0.163100
      3 C20         -2.0090     3.0740    -1.3640 c3         1 92U      -0.123100
      4 C21         -3.6730    -2.4990    -0.1690 c3         1 92U       0.239800
      5 C22         -3.6420    -3.0710     1.2610 c3         1 92U      -0.121100
      6 C01         -0.1420     0.8630     0.5710 ca         1 92U      -0.052000
      7 C02          0.9300    -0.0600     0.5770 ca         1 92U      -0.156600
      8 C03          0.6740    -1.4270     0.3020 ca         1 92U      -0.065000
      9 C04         -0.6310    -1.8650    -0.0010 ca         1 92U      -0.127000
     10 C05         -1.6770    -0.9310    -0.0160 ca         1 92U       0.285000
     11 C06         -1.4370     0.4160     0.2610 ca         1 92U       0.236000
     12 N07         -3.0250    -1.1880    -0.2990 nh         1 92U      -0.782300
     13 S08         -3.9820     0.2400    -0.2060 s6         1 92U       1.313200
     14 N09         -2.6050     1.1910     0.2040 nh         1 92U      -0.783300
     15 C11          3.4520    -0.0310     0.1030 cd         1 92U      -0.409600
     16 O12          2.5010     1.1770     1.8670 o          1 92U      -0.608100
     17 N14          5.4840    -0.3200    -0.6570 na         1 92U       0.105800
     18 N15          4.6860    -1.0120    -1.5510 nc         1 92U      -0.523800
     19 C16          3.4660    -0.8170    -1.0700 cd         1 92U       0.324900
     20 C18          6.9430    -0.2750    -0.8290 c3         1 92U       0.075900
     21 C19         -2.6380     2.6420    -0.0260 c3         1 92U       0.238800
     22 O23         -4.8710     0.1580     0.9540 o          1 92U      -0.535000
     23 O24         -4.4410     0.5990    -1.5490 o          1 92U      -0.535000
     24 H1          -2.5300     2.6050    -2.2060 hc         1 92U       0.052033
     25 H2          -2.0800     4.1620    -1.4790 hc         1 92U       0.052033
     26 H3          -0.9510     2.7940    -1.4110 hc         1 92U       0.052033
     27 H4          -3.1880    -3.2130    -0.8480 h1         1 92U       0.057700
     28 H5          -4.7220    -2.4300    -0.4910 h1         1 92U       0.057700
     29 H6          -4.1510    -4.0410     1.2900 hc         1 92U       0.051700
     30 H7          -2.6120    -3.2150     1.6040 hc         1 92U       0.051700
     31 H8          -4.1490    -2.3960     1.9600 hc         1 92U       0.051700
     32 H9           0.0310     1.9100     0.8020 ha         1 92U       0.143000
     33 H10          1.4810    -2.1560     0.3390 ha         1 92U       0.125000
     34 H11         -0.8210    -2.9110    -0.2180 ha         1 92U       0.129000
     35 H13          2.6240    -1.2470    -1.5990 h4         1 92U       0.044100
     36 H14          7.2420    -0.8950    -1.6830 h1         1 92U       0.062033
     37 H15          7.2570     0.7610    -1.0060 h1         1 92U       0.062033
     38 H16          7.4290    -0.6510     0.0790 h1         1 92U       0.062033
     39 H17         -2.1150     3.1520     0.7940 h1         1 92U       0.059700
     40 H18         -3.6770     2.9990    -0.0010 h1         1 92U       0.059700
     41 H12          4.4800     1.3340     1.8640 ho         1 92U       0.536000
     42 O17          5.2620     1.0360     1.3400 oh         1 92U      -0.521100
@<TRIPOS>BOND
     1     1     7 1   
     2     1    15 1   
     3     1    16 2   
     4     2    15 2   
     5     2    17 1   
     6     2    42 1   
     7     3    21 1   
     8     3    24 1   
     9     3    25 1   
    10     3    26 1   
    11     4     5 1   
    12     4    12 1   
    13     4    27 1   
    14     4    28 1   
    15     5    29 1   
    16     5    30 1   
    17     5    31 1   
    18     6     7 ar  
    19     6    11 ar  
    20     6    32 1   
    21     7     8 ar  
    22     8     9 ar  
    23     8    33 1   
    24     9    10 ar  
    25     9    34 1   
    26    10    11 ar  
    27    10    12 1   
    28    11    14 1   
    29    12    13 1   
    30    13    14 1   
    31    13    22 2   
    32    13    23 2   
    33    14    21 1   
    34    15    19 1   
    35    17    18 1   
    36    17    20 1   
    37    18    19 2   
    38    19    35 1   
    39    20    36 1   
    40    20    37 1   
    41    20    38 1   
    42    21    39 1   
    43    21    40 1   
    44    41    42 1   
@<TRIPOS>SUBSTRUCTURE
     1 92U         1 TEMP              0 ****  ****    0 ROOT
