@<TRIPOS>MOLECULE
92U
   42    44     1     0     0
SMALL
bcc


@<TRIPOS>ATOM
      1 C10          2.3170     0.5280     0.5540 c          1 92U       0.653300
      2 C13          4.7580     0.2980     0.2320 cc         1 92U       0.213800
      3 C20         -2.2790     3.1480    -1.2840 c3         1 92U      -0.123100
      4 C21         -3.6290    -2.4520    -0.1870 c3         1 92U       0.239800
      5 C22         -3.7090    -3.1320     1.1680 c3         1 92U      -0.121100
      6 C01         -0.1160     0.9310     0.3900 ca         1 92U      -0.070000
      7 C02          0.9460     0.0150     0.3460 ca         1 92U      -0.156600
      8 C03          0.6880    -1.3410     0.1710 ca         1 92U      -0.083000
      9 C04         -0.6110    -1.8160     0.0200 ca         1 92U      -0.145000
     10 C05         -1.6470    -0.9030     0.0310 ca         1 92U       0.146600
     11 C06         -1.3950     0.4630     0.2180 ca         1 92U       0.097600
     12 N07         -2.9940    -1.1410    -0.1390 nh         1 92U      -0.643900
     13 S08         -3.9090     0.2400    -0.0200 s6         1 92U       1.454800
     14 N09         -2.5760     1.1910     0.2220 nh         1 92U      -0.644900
     15 C11          3.4530    -0.1190    -0.0510 cd         1 92U      -0.474900
     16 O12          2.4990     1.5360     1.2450 o          1 92U      -0.608100
     17 N14          5.5880    -0.4470    -0.4920 na         1 92U       0.084400
     18 N15          4.9130    -1.3320    -1.2660 nc         1 92U      -0.523800
     19 C16          3.6470    -1.1420    -1.0120 cd         1 92U       0.390200
     20 C18          7.0290    -0.3980    -0.5430 c3         1 92U       0.046600
     21 C19         -2.6640     2.6410     0.0950 c3         1 92U       0.238800
     22 O23         -4.7680     0.2040     1.1470 o          1 92U      -0.605800
     23 O24         -4.5740     0.5490    -1.2720 o          1 92U      -0.605800
     24 H1          -2.9410     2.7470    -2.0490 hc         1 92U       0.052033
     25 H2          -2.3560     4.2350    -1.3050 hc         1 92U       0.052033
     26 H3          -1.2540     2.8830    -1.5410 hc         1 92U       0.052033
     27 H4          -3.0690    -3.0560    -0.9020 h1         1 92U       0.057700
     28 H5          -4.6230    -2.3280    -0.6170 h1         1 92U       0.057700
     29 H6          -4.1820    -4.1070     1.0540 hc         1 92U       0.051700
     30 H7          -2.7220    -3.2920     1.6000 hc         1 92U       0.051700
     31 H8          -4.3010    -2.5460     1.8690 hc         1 92U       0.051700
     32 H9           0.0750     1.9850     0.5430 ha         1 92U       0.161000
     33 H10          1.4940    -2.0600     0.1920 ha         1 92U       0.143000
     34 H11         -0.7920    -2.8750    -0.1020 ha         1 92U       0.147000
     35 H13          2.9030    -1.7230    -1.5340 h4         1 92U       0.044100
     36 H14          7.3570    -0.1640    -1.5540 h1         1 92U       0.062033
     37 H15          7.3910     0.3720     0.1300 h1         1 92U       0.062033
     38 H16          7.4450    -1.3560    -0.2400 h1         1 92U       0.062033
     39 H17         -2.0240     3.0700     0.8670 h1         1 92U       0.059700
     40 H18         -3.6800     2.9410     0.3500 h1         1 92U       0.059700
     41 H12          4.3670     1.6790     1.3870 ho         1 92U       0.497000
     42 O17          5.1760     1.2440     1.0440 oh         1 92U      -0.482100
@<TRIPOS>BOND
     1     1     7 1   
     2     1    15 1   
     3     1    16 2   
     4     2    15 2   
     5     2    17 1   
     6     2    42 1   
     7     3    21 1   
     8     3    24 1   
     9     3    25 1   
    10     3    26 1   
    11     4     5 1   
    12     4    12 1   
    13     4    27 1   
    14     4    28 1   
    15     5    29 1   
    16     5    30 1   
    17     5    31 1   
    18     6     7 ar  
    19     6    11 ar  
    20     6    32 1   
    21     7     8 ar  
    22     8     9 ar  
    23     8    33 1   
    24     9    10 ar  
    25     9    34 1   
    26    10    11 ar  
    27    10    12 1   
    28    11    14 1   
    29    12    13 1   
    30    13    14 1   
    31    13    22 2   
    32    13    23 2   
    33    14    21 1   
    34    15    19 1   
    35    17    18 1   
    36    17    20 1   
    37    18    19 2   
    38    19    35 1   
    39    20    36 1   
    40    20    37 1   
    41    20    38 1   
    42    21    39 1   
    43    21    40 1   
    44    41    42 1   
@<TRIPOS>SUBSTRUCTURE
     1 92U         1 TEMP              0 ****  ****    0 ROOT
