@<TRIPOS>MOLECULE
92V
   40    41     1     0     0
SMALL
No Charge or Current Charge


@<TRIPOS>ATOM
      1 C10         -4.7390    -0.2840     1.4820 ca         1 92V      -0.167500
      2 C13         -7.6740    -1.0540    -0.6850 c3         1 92V       0.146900
      3 C21          4.5320     0.4220    -0.2250 c3         1 92V       0.100000
      4 C22          5.6090    -0.6060     0.1700 c3         1 92V      -0.089400
      5 C01          0.7790    -0.1300     0.0440 cc         1 92V      -0.220600
      6 C02         -0.5240     0.3000    -0.1090 cd         1 92V      -0.207300
      7 C05          0.7210    -1.4400     0.5650 cc         1 92V       0.250900
      8 C06         -2.6410    -0.7790     0.3460 ca         1 92V      -0.056200
      9 C07         -3.3620    -1.2140    -0.7820 ca         1 92V      -0.045500
     10 C08         -4.7690    -1.1760    -0.7820 ca         1 92V      -0.167500
     11 C09         -5.4620    -0.7070     0.3550 ca         1 92V       0.162100
     12 C11         -3.3340    -0.3210     1.4830 ca         1 92V      -0.045500
     13 C14         -1.0590     1.6350    -0.6310 c3         1 92V       0.395300
     14 C18          2.0290     0.6090    -0.2660 c          1 92V       0.649700
     15 C23          7.0400    -0.0850    -0.0560 c3         1 92V       0.085600
     16 F15         -0.6160     2.6660     0.1230 f          1 92V      -0.099333
     17 F16         -0.6450     1.8630    -1.8980 f          1 92V      -0.099333
     18 F17         -2.4060     1.7400    -0.6530 f          1 92V      -0.099333
     19 N03         -1.2490    -0.8200     0.3450 na         1 92V       0.269000
     20 N04         -0.4960    -1.8960     0.7620 nd         1 92V      -0.484800
     21 N20          3.1820    -0.0960    -0.0010 ns         1 92V      -0.502900
     22 O12         -6.8400    -0.6460     0.4140 os         1 92V      -0.335100
     23 O19          2.0700     1.7440    -0.7170 o          1 92V      -0.586100
     24 S24          8.3410    -1.3150     0.4170 sh         1 92V      -0.456800
     25 H101        -5.2720     0.0750     2.3590 ha         1 92V       0.132000
     26 H132        -7.4650    -0.4520    -1.5780 h1         1 92V       0.045033
     27 H131        -7.5120    -2.1120    -0.9260 h1         1 92V       0.045033
     28 H133        -8.7330    -0.9220    -0.4280 h1         1 92V       0.045033
     29 H212         4.6630     1.3380     0.3670 h1         1 92V       0.058200
     30 H211         4.6410     0.6800    -1.2870 h1         1 92V       0.058200
     31 H221         5.4870    -0.8700     1.2270 hc         1 92V       0.059700
     32 H222         5.4660    -1.5230    -0.4140 hc         1 92V       0.059700
     33 H051         1.5500    -2.0890     0.8110 h4         1 92V       0.048100
     34 H071        -2.8310    -1.5770    -1.6600 ha         1 92V       0.134000
     35 H081        -5.2980    -1.5130    -1.6680 ha         1 92V       0.132000
     36 H111        -2.7830     0.0090     2.3620 ha         1 92V       0.134000
     37 H201         3.0770    -1.0300     0.3710 hn         1 92V       0.316500
     38 H232         7.1750     0.1700    -1.1150 h1         1 92V       0.060700
     39 H231         7.1960     0.8270     0.5360 h1         1 92V       0.060700
     40 H1           9.4060    -0.5380     0.0940 hs         1 92V       0.214800
@<TRIPOS>BOND
     1     1    11 ar  
     2     1    12 ar  
     3     1    25 1   
     4     2    22 1   
     5     2    26 1   
     6     2    27 1   
     7     2    28 1   
     8     3     4 1   
     9     3    21 1   
    10     3    29 1   
    11     3    30 1   
    12     4    15 1   
    13     4    31 1   
    14     4    32 1   
    15     5     6 2   
    16     5     7 1   
    17     5    14 1   
    18     6    13 1   
    19     6    19 1   
    20     7    20 2   
    21     7    33 1   
    22     8     9 ar  
    23     8    12 ar  
    24     8    19 1   
    25     9    10 ar  
    26     9    34 1   
    27    10    11 ar  
    28    10    35 1   
    29    11    22 1   
    30    12    36 1   
    31    13    16 1   
    32    13    17 1   
    33    13    18 1   
    34    14    21 1   
    35    14    23 2   
    36    15    24 1   
    37    15    38 1   
    38    15    39 1   
    39    19    20 1   
    40    21    37 1   
    41    24    40 1   
@<TRIPOS>SUBSTRUCTURE
     1 92V         1 TEMP              0 ****  ****    0 ROOT
