@<TRIPOS>MOLECULE
92V
   40    41     1     0     0
SMALL
abcg2


@<TRIPOS>ATOM
      1 C10         -4.7690     0.1770     1.1390 ca         1 92V      -0.167500
      2 C13         -7.5750    -1.4370    -0.5090 c3         1 92V       0.146900
      3 C21          4.5330     0.4320    -0.4280 c3         1 92V       0.100000
      4 C22          5.4920    -0.6570     0.0350 c3         1 92V      -0.089400
      5 C01          0.8560    -0.0730     0.1460 cc         1 92V      -0.220600
      6 C02         -0.4190     0.4330    -0.0050 cd         1 92V      -0.207300
      7 C05          0.6490    -1.4300     0.4440 cc         1 92V       0.250900
      8 C06         -2.6950    -0.5910     0.2180 ca         1 92V      -0.056200
      9 C07         -3.3800    -1.4150    -0.6570 ca         1 92V      -0.045500
     10 C08         -4.7660    -1.4520    -0.6400 ca         1 92V      -0.167500
     11 C09         -5.4710    -0.6490     0.2560 ca         1 92V       0.162100
     12 C11         -3.3890     0.1990     1.1250 ca         1 92V      -0.045500
     13 C14         -0.8390     1.8020    -0.4250 c3         1 92V       0.395300
     14 C18          2.1430     0.6610     0.1290 c          1 92V       0.649700
     15 C23          6.9300    -0.1640    -0.0050 c3         1 92V       0.085600
     16 F15         -1.0180     2.6160     0.6210 f          1 92V      -0.099333
     17 F16          0.0800     2.3560    -1.2130 f          1 92V      -0.099333
     18 F17         -1.9840     1.7830    -1.1110 f          1 92V      -0.099333
     19 N03         -1.2740    -0.5910     0.2100 na         1 92V       0.269000
     20 N04         -0.6320    -1.7220     0.4860 nd         1 92V      -0.484800
     21 N20          3.1640    -0.0320    -0.3980 ns         1 92V      -0.502900
     22 O12         -6.8090    -0.6070     0.3440 os         1 92V      -0.335100
     23 O19          2.2390     1.7850     0.5990 o          1 92V      -0.586100
     24 S24          8.0360    -1.5190     0.5100 sh         1 92V      -0.456800
     25 H101        -5.3150     0.7880     1.8450 ha         1 92V       0.132000
     26 H132        -7.4110    -1.2010    -1.5630 h1         1 92V       0.045033
     27 H131        -7.3610    -2.4960    -0.3460 h1         1 92V       0.045033
     28 H133        -8.6170    -1.2490    -0.2670 h1         1 92V       0.045033
     29 H212         4.6090     1.3040     0.2200 h1         1 92V       0.058200
     30 H211         4.7960     0.7570    -1.4390 h1         1 92V       0.058200
     31 H221         5.2290    -0.9640     1.0500 hc         1 92V       0.059700
     32 H222         5.3890    -1.5360    -0.6070 hc         1 92V       0.059700
     33 H051         1.3890    -2.1870     0.6540 h4         1 92V       0.048100
     34 H071        -2.8370    -2.0320    -1.3610 ha         1 92V       0.134000
     35 H081        -5.2730    -2.1060    -1.3360 ha         1 92V       0.132000
     36 H111        -2.8590     0.8200     1.8360 ha         1 92V       0.134000
     37 H201         2.9610    -0.9020    -0.8650 hn         1 92V       0.316500
     38 H232         7.1960     0.1550    -1.0140 h1         1 92V       0.060700
     39 H231         7.0630     0.6840     0.6670 h1         1 92V       0.060700
     40 H1           9.1930    -0.8560     0.4090 hs         1 92V       0.214800
@<TRIPOS>BOND
     1     1    11 ar  
     2     1    12 ar  
     3     1    25 1   
     4     2    22 1   
     5     2    26 1   
     6     2    27 1   
     7     2    28 1   
     8     3     4 1   
     9     3    21 1   
    10     3    29 1   
    11     3    30 1   
    12     4    15 1   
    13     4    31 1   
    14     4    32 1   
    15     5     6 2   
    16     5     7 1   
    17     5    14 1   
    18     6    13 1   
    19     6    19 1   
    20     7    20 2   
    21     7    33 1   
    22     8     9 ar  
    23     8    12 ar  
    24     8    19 1   
    25     9    10 ar  
    26     9    34 1   
    27    10    11 ar  
    28    10    35 1   
    29    11    22 1   
    30    12    36 1   
    31    13    16 1   
    32    13    17 1   
    33    13    18 1   
    34    14    21 1   
    35    14    23 2   
    36    15    24 1   
    37    15    38 1   
    38    15    39 1   
    39    19    20 1   
    40    21    37 1   
    41    24    40 1   
@<TRIPOS>SUBSTRUCTURE
     1 92V         1 TEMP              0 ****  ****    0 ROOT
