@<TRIPOS>MOLECULE
92W
   50    52     1     0     0
SMALL
No Charge or Current Charge


@<TRIPOS>ATOM
      1 C10        -19.7650     8.4590     5.9860 c3         1 92W      -0.071800
      2 N12        -18.6320     6.3410     8.8620 nb         1 92W      -0.654000
      3 C13        -18.2560     7.2410     9.7810 ca         1 92W       0.357900
      4 C15        -16.0740    10.5210     6.0720 c3         1 92W       0.215800
      5 C17        -14.6060     9.6290     4.1230 c3         1 92W       0.110000
      6 C20        -13.3600    10.2310     1.5470 c3         1 92W       0.078800
      7 C24        -17.5370    11.0200     4.0680 c3         1 92W       0.207500
      8 C03        -18.4520    10.5920     8.1020 ca         1 92W      -0.251500
      9 C04        -18.0750    11.3860     9.2160 ca         1 92W      -0.008000
     10 C05        -17.7880    10.8230    10.4590 ca         1 92W      -0.140000
     11 C06        -17.8410     9.4430    10.6180 ca         1 92W      -0.026000
     12 C07        -18.2350     8.6260     9.5470 ca         1 92W      -0.127000
     13 C08        -18.6010     9.1620     8.2740 ca         1 92W       0.093000
     14 C09        -19.0750     8.1870     7.3230 ca         1 92W      -0.110300
     15 C11        -19.0380     6.8180     7.6750 ca         1 92W       0.328900
     16 C16        -15.2890     9.3360     5.4750 c3         1 92W      -0.090400
     17 C19        -14.9300    10.2420     1.6970 c          1 92W       0.592100
     18 C23        -16.9680     9.8960     3.1580 c3         1 92W       0.101000
     19 C25        -16.9710    12.4100     3.6800 c3         1 92W      -0.121100
     20 N14        -17.4380    10.6930     5.5200 n3         1 92W      -0.773500
     21 N18        -15.4880     9.9180     2.9630 n          1 92W      -0.416800
     22 N21        -12.7740    10.6320     0.2170 n8         1 92W      -0.989200
     23 O01        -17.9310    12.8730     6.7400 o          1 92W      -0.549500
     24 O22        -15.6530    10.5080     0.7410 o          1 92W      -0.599100
     25 O26        -19.8510    11.3940     5.9670 o          1 92W      -0.549500
     26 H1         -20.6370     9.1080     6.1150 hc         1 92W       0.059700
     27 H2         -19.0950     8.8670     5.2290 hc         1 92W       0.059700
     28 H3         -20.1640     7.5390     5.5430 hc         1 92W       0.059700
     29 H4         -17.9590     6.8340    10.7470 h4         1 92W       0.019100
     30 H5         -16.1320    10.3220     7.1490 h1         1 92W       0.052200
     31 H6         -15.4880    11.4440     5.9660 h1         1 92W       0.052200
     32 H7         -13.9850     8.7600     3.8680 h1         1 92W       0.041700
     33 H8         -13.9330    10.4840     4.2670 h1         1 92W       0.041700
     34 H9         -13.0210     9.2120     1.7790 h1         1 92W       0.044700
     35 H10        -12.9460    10.9010     2.3130 h1         1 92W       0.044700
     36 H11        -18.6040    11.0490     3.8070 h1         1 92W       0.086700
     37 H12        -17.9720    12.4660     9.1280 ha         1 92W       0.148000
     38 H13        -17.4900    11.4570    11.2910 ha         1 92W       0.127000
     39 H14        -17.5830     9.0070    11.5820 ha         1 92W       0.121000
     40 H15        -19.3860     6.0570     6.9760 h4         1 92W       0.020100
     41 H16        -15.9380     8.4560     5.4000 hc         1 92W       0.059700
     42 H17        -14.5000     9.0690     6.1880 hc         1 92W       0.059700
     43 H18        -17.4720     9.9750     2.1870 h1         1 92W       0.069700
     44 H19        -17.2640     8.9220     3.5650 h1         1 92W       0.069700
     45 H20        -17.5240    13.2170     4.1710 hc         1 92W       0.056033
     46 H21        -15.9130    12.5030     3.9480 hc         1 92W       0.056033
     47 H22        -17.0600    12.5660     2.5980 hc         1 92W       0.056033
     48 H23        -11.7620    10.4480     0.2150 hn         1 92W       0.409500
     49 H24        -13.1370    10.0070    -0.5160 hn         1 92W       0.409500
     50 S02        -18.5120    11.5400     6.5410 sy         1 92W       1.169600
@<TRIPOS>BOND
     1     1    14 1   
     2     1    26 1   
     3     1    27 1   
     4     1    28 1   
     5     2     3 ar  
     6     2    15 ar  
     7     3    12 ar  
     8     3    29 1   
     9     4    16 1   
    10     4    20 1   
    11     4    30 1   
    12     4    31 1   
    13     5    16 1   
    14     5    21 1   
    15     5    32 1   
    16     5    33 1   
    17     6    17 1   
    18     6    22 1   
    19     6    34 1   
    20     6    35 1   
    21     7    18 1   
    22     7    19 1   
    23     7    20 1   
    24     7    36 1   
    25     8     9 ar  
    26     8    13 ar  
    27     8    50 1   
    28     9    10 ar  
    29     9    37 1   
    30    10    11 ar  
    31    10    38 1   
    32    11    12 ar  
    33    11    39 1   
    34    12    13 ar  
    35    13    14 ar  
    36    14    15 ar  
    37    15    40 1   
    38    16    41 1   
    39    16    42 1   
    40    17    21 1   
    41    17    24 2   
    42    18    21 1   
    43    18    43 1   
    44    18    44 1   
    45    19    45 1   
    46    19    46 1   
    47    19    47 1   
    48    20    50 1   
    49    22    48 1   
    50    22    49 1   
    51    23    50 2   
    52    25    50 2   
@<TRIPOS>SUBSTRUCTURE
     1 92W         1 TEMP              0 ****  ****    0 ROOT
