@<TRIPOS>MOLECULE
92W
   50    52     1     0     0
SMALL
abcg2


@<TRIPOS>ATOM
      1 C10        -19.2290     8.3120     5.8630 c3         1 92W      -0.071800
      2 N12        -19.7480     6.5870     9.1380 nb         1 92W      -0.654000
      3 C13        -19.2080     7.4030    10.0060 ca         1 92W       0.357900
      4 C15        -15.7580    10.7230     5.9240 c3         1 92W       0.215800
      5 C17        -14.3990     9.5780     4.0690 c3         1 92W       0.110000
      6 C20        -13.4940    10.5030     1.5600 c3         1 92W       0.078800
      7 C24        -17.5070    10.7850     4.0810 c3         1 92W       0.207500
      8 C03        -18.1120    10.4160     8.0840 ca         1 92W      -0.251500
      9 C04        -17.5470    11.1240     9.1250 ca         1 92W      -0.008000
     10 C05        -17.4990    10.6300    10.4370 ca         1 92W      -0.140000
     11 C06        -18.0640     9.4180    10.7030 ca         1 92W      -0.026000
     12 C07        -18.6420     8.6530     9.6650 ca         1 92W      -0.127000
     13 C08        -18.6590     9.0990     8.3000 ca         1 92W       0.093000
     14 C09        -19.2060     8.1660     7.3570 ca         1 92W      -0.110300
     15 C11        -19.7200     6.9800     7.8460 ca         1 92W       0.328900
     16 C16        -14.9880     9.4840     5.4700 c3         1 92W      -0.090400
     17 C19        -14.9890    10.3480     1.8000 c          1 92W       0.592100
     18 C23        -16.7940     9.6910     3.2750 c3         1 92W       0.101000
     19 C25        -17.2600    12.1830     3.5190 c3         1 92W      -0.121100
     20 N14        -17.1750    10.6700     5.5240 n3         1 92W      -0.773500
     21 N18        -15.3770     9.9350     3.0330 n          1 92W      -0.416800
     22 N21        -13.2400    11.1050     0.2570 n8         1 92W      -0.989200
     23 O01        -17.7480    12.7230     6.9090 o          1 92W      -0.549500
     24 O22        -15.7900    10.5650     0.8880 o          1 92W      -0.599100
     25 O26        -19.5490    11.2960     6.0320 o          1 92W      -0.549500
     26 H1         -19.8540     9.1380     5.5370 hc         1 92W       0.059700
     27 H2         -18.2280     8.4880     5.4800 hc         1 92W       0.059700
     28 H3         -19.6090     7.3940     5.4170 hc         1 92W       0.059700
     29 H4         -19.1940     7.0980    11.0490 h4         1 92W       0.019100
     30 H5         -15.7270    10.7690     7.0100 h1         1 92W       0.052200
     31 H6         -15.2830    11.6350     5.5520 h1         1 92W       0.052200
     32 H7         -13.9200     8.6260     3.8190 h1         1 92W       0.041700
     33 H8         -13.6210    10.3410     4.0860 h1         1 92W       0.041700
     34 H9         -13.0400     9.5100     1.6850 h1         1 92W       0.044700
     35 H10        -13.0630    11.1370     2.3380 h1         1 92W       0.044700
     36 H11        -18.5690    10.5600     4.0080 h1         1 92W       0.086700
     37 H12        -17.1480    12.1060     8.9240 ha         1 92W       0.148000
     38 H13        -17.0400    11.2230    11.2160 ha         1 92W       0.127000
     39 H14        -18.0780     9.0150    11.7080 ha         1 92W       0.121000
     40 H15        -20.1390     6.2740     7.1390 h4         1 92W       0.020100
     41 H16        -15.6220     8.6040     5.5820 hc         1 92W       0.059700
     42 H17        -14.1420     9.3440     6.1460 hc         1 92W       0.059700
     43 H18        -17.2770     9.6430     2.3040 h1         1 92W       0.069700
     44 H19        -16.9180     8.7250     3.7610 h1         1 92W       0.069700
     45 H20        -17.8590    12.9200     4.0520 hc         1 92W       0.056033
     46 H21        -16.2100    12.4670     3.6000 hc         1 92W       0.056033
     47 H22        -17.5350    12.2090     2.4650 hc         1 92W       0.056033
     48 H23        -12.2800    10.9270    -0.0150 hn         1 92W       0.409500
     49 H24        -13.8360    10.6660    -0.4360 hn         1 92W       0.409500
     50 S02        -18.2120    11.3900     6.5750 sy         1 92W       1.169600
@<TRIPOS>BOND
     1     1    14 1   
     2     1    26 1   
     3     1    27 1   
     4     1    28 1   
     5     2     3 ar  
     6     2    15 ar  
     7     3    12 ar  
     8     3    29 1   
     9     4    16 1   
    10     4    20 1   
    11     4    30 1   
    12     4    31 1   
    13     5    16 1   
    14     5    21 1   
    15     5    32 1   
    16     5    33 1   
    17     6    17 1   
    18     6    22 1   
    19     6    34 1   
    20     6    35 1   
    21     7    18 1   
    22     7    19 1   
    23     7    20 1   
    24     7    36 1   
    25     8     9 ar  
    26     8    13 ar  
    27     8    50 1   
    28     9    10 ar  
    29     9    37 1   
    30    10    11 ar  
    31    10    38 1   
    32    11    12 ar  
    33    11    39 1   
    34    12    13 ar  
    35    13    14 ar  
    36    14    15 ar  
    37    15    40 1   
    38    16    41 1   
    39    16    42 1   
    40    17    21 1   
    41    17    24 2   
    42    18    21 1   
    43    18    43 1   
    44    18    44 1   
    45    19    45 1   
    46    19    46 1   
    47    19    47 1   
    48    20    50 1   
    49    22    48 1   
    50    22    49 1   
    51    23    50 2   
    52    25    50 2   
@<TRIPOS>SUBSTRUCTURE
     1 92W         1 TEMP              0 ****  ****    0 ROOT
