@<TRIPOS>MOLECULE
92X
   53    56     1     0     0
SMALL
abcg2


@<TRIPOS>ATOM
      1 C10          1.8290    -0.5520    -1.3150 ca         1 92X      -0.174600
      2 C13          0.3520    -2.4110    -1.7320 ca         1 92X      -0.186000
      3 C15         -0.4990    -0.3730    -0.7450 ca         1 92X      -0.212600
      4 C21         -4.0040     0.3860     0.2620 ca         1 92X       0.046600
      5 C22         -3.0620    -1.6210    -0.6370 c          1 92X       0.624000
      6 C26         -4.7580     1.1210    -0.6370 ca         1 92X      -0.083000
      7 C28         -6.2140     1.7770     1.1480 ca         1 92X      -0.099000
      8 C1           6.4150     0.9420     0.3810 c6         1 92X      -0.075200
      9 C2           5.7900     1.1010     1.7540 c6         1 92X      -0.065400
     10 C3           4.8710    -0.0740     2.0370 c6         1 92X      -0.183400
     11 C4           3.7880    -0.2260     0.9940 c          1 92X       0.610300
     12 C5           4.1280     0.1600    -0.3810 ce         1 92X      -0.495400
     13 C6           5.3910     0.6770    -0.6670 c2         1 92X       0.288900
     14 O7           5.7630     0.9530    -1.8760 oh         1 92X      -0.537100
     15 C8           3.2160    -0.0300    -1.4900 c          1 92X       0.640900
     16 O11          3.5760     0.1890    -2.6560 o          1 92X      -0.598100
     17 C12          1.5990    -1.8330    -1.8000 ca         1 92X      -0.009000
     18 C14         -0.7130    -1.6880    -1.1980 ca         1 92X       0.138600
     19 C16          0.7870     0.2070    -0.7950 ca         1 92X       0.086700
     20 C18         -1.6480     0.3690    -0.2230 c          1 92X       0.598600
     21 N19         -2.8540    -0.3180    -0.2220 n          1 92X      -0.302600
     22 O20         -1.6240     1.5060     0.1960 o          1 92X      -0.512000
     23 O23         -4.1640    -2.1230    -0.5610 o          1 92X      -0.544000
     24 N24         -1.9670    -2.2740    -1.1260 n          1 92X      -0.302000
     25 C25         -2.1410    -3.6430    -1.5890 c3         1 92X       0.084300
     26 C27         -5.8710     1.8210    -0.1960 ca         1 92X      -0.111000
     27 C29         -5.4470     1.0390     2.0390 ca         1 92X      -0.109000
     28 C30         -4.3270     0.3280     1.6150 ca         1 92X      -0.044300
     29 C31         -3.5120    -0.4790     2.5810 c3         1 92X      -0.048800
     30 H1           0.2250    -3.4150    -2.1050 ha         1 92X       0.126000
     31 H2           0.4610     2.3390    -0.8500 hc         1 92X       0.059033
     32 H3           0.8550     1.7190     0.7400 hc         1 92X       0.059033
     33 H4           2.1080     1.8750    -0.4770 hc         1 92X       0.059033
     34 H5          -4.4730     1.1450    -1.6820 ha         1 92X       0.119000
     35 H6          -7.0800     2.3190     1.5060 ha         1 92X       0.112000
     36 H7           6.9970     1.8200     0.0930 hc         1 92X       0.080700
     37 H8           7.1090     0.0930     0.3780 hc         1 92X       0.080700
     38 H9           6.5710     1.1610     2.5110 hc         1 92X       0.057200
     39 H10          5.2280     2.0370     1.7990 hc         1 92X       0.057200
     40 H11          5.4530    -1.0040     2.0390 hc         1 92X       0.072200
     41 H12          4.4000     0.0060     3.0170 hc         1 92X       0.072200
     42 H13          4.9950     0.6950    -2.4850 ho         1 92X       0.548000
     43 H14          2.4140    -2.4050    -2.2260 ha         1 92X       0.121000
     44 H15         -3.1680    -3.9470    -1.4340 h1         1 92X       0.057700
     45 H16         -1.9130    -3.7210    -2.6510 h1         1 92X       0.057700
     46 H17         -1.4920    -4.3190    -1.0330 h1         1 92X       0.057700
     47 H18         -6.4620     2.3970    -0.8950 ha         1 92X       0.115000
     48 H19         -5.7210     1.0140     3.0860 ha         1 92X       0.113000
     49 H20         -3.6090    -1.5480     2.3850 hc         1 92X       0.046367
     50 H21         -2.4510    -0.2340     2.5280 hc         1 92X       0.046367
     51 H22         -3.8400    -0.3040     3.6040 hc         1 92X       0.046367
     52 C17          1.0660     1.6050    -0.3220 c3         1 92X      -0.057800
     53 O9           2.7020    -0.6850     1.2950 o          1 92X      -0.534100
@<TRIPOS>BOND
     1     1    15 1   
     2     1    17 ar  
     3     1    19 ar  
     4     2    17 ar  
     5     2    18 ar  
     6     2    30 1   
     7     3    18 ar  
     8     3    19 ar  
     9     3    20 1   
    10     4     6 ar  
    11     4    21 1   
    12     4    28 ar  
    13     5    21 1   
    14     5    23 2   
    15     5    24 1   
    16     6    26 ar  
    17     6    34 1   
    18     7    26 ar  
    19     7    27 ar  
    20     7    35 1   
    21     8     9 1   
    22     8    13 1   
    23     8    36 1   
    24     8    37 1   
    25     9    10 1   
    26     9    38 1   
    27     9    39 1   
    28    10    11 1   
    29    10    40 1   
    30    10    41 1   
    31    11    12 1   
    32    11    53 2   
    33    12    13 2   
    34    12    15 1   
    35    13    14 1   
    36    14    42 1   
    37    15    16 2   
    38    17    43 1   
    39    18    24 1   
    40    19    52 1   
    41    20    21 1   
    42    20    22 2   
    43    24    25 1   
    44    25    44 1   
    45    25    45 1   
    46    25    46 1   
    47    26    47 1   
    48    27    28 ar  
    49    27    48 1   
    50    28    29 1   
    51    29    49 1   
    52    29    50 1   
    53    29    51 1   
    54    31    52 1   
    55    32    52 1   
    56    33    52 1   
@<TRIPOS>SUBSTRUCTURE
     1 92X         1 TEMP              0 ****  ****    0 ROOT
