@<TRIPOS>MOLECULE
92X
   53    56     1     0     0
SMALL
No Charge or Current Charge


@<TRIPOS>ATOM
      1 C10          2.0110    -1.0140    -1.4970 ca         1 92X      -0.174600
      2 C13          0.2980    -2.6700    -1.9580 ca         1 92X      -0.186000
      3 C15         -0.3130    -0.6400    -0.7620 ca         1 92X      -0.212600
      4 C21         -3.7720     0.5330     0.3630 ca         1 92X       0.046600
      5 C22         -3.0660    -1.5120    -0.7570 c          1 92X       0.624000
      6 C26         -4.2970     1.5830    -0.4140 ca         1 92X      -0.083000
      7 C28         -5.8260     2.1670     1.3830 ca         1 92X      -0.099000
      8 C1           5.8110     1.6720     0.4820 c6         1 92X      -0.075200
      9 C2           5.0720     1.5470     1.8300 c6         1 92X      -0.065400
     10 C3           4.7130     0.0700     2.0830 c6         1 92X      -0.183400
     11 C4           3.8840    -0.5280     0.9420 c          1 92X       0.610300
     12 C5           4.2180    -0.0830    -0.4430 ce         1 92X      -0.495400
     13 C6           5.0920     0.9290    -0.6340 c2         1 92X       0.288900
     14 O7           5.4220     1.3820    -1.8470 oh         1 92X      -0.537100
     15 C8           3.4740    -0.6620    -1.5960 c          1 92X       0.640900
     16 O11          4.0260    -0.6960    -2.6900 o          1 92X      -0.598100
     17 C12          1.6220    -2.2410    -2.0490 ca         1 92X      -0.009000
     18 C14         -0.6610    -1.9140    -1.2570 ca         1 92X       0.138600
     19 C16          1.0320    -0.1630    -0.9110 ca         1 92X       0.086700
     20 C18         -1.4020     0.1680    -0.0830 c          1 92X       0.598600
     21 N19         -2.7230    -0.2840    -0.1850 n          1 92X      -0.302600
     22 O20         -1.1610     1.1720     0.5740 o          1 92X      -0.512000
     23 O23         -4.2400    -1.8570    -0.8350 o          1 92X      -0.544000
     24 N24         -2.0290    -2.3450    -1.2120 n          1 92X      -0.302000
     25 C25         -2.3650    -3.7530    -1.5650 c3         1 92X       0.084300
     26 C27         -5.3220     2.3980     0.0930 ca         1 92X      -0.111000
     27 C29         -5.3040     1.1230     2.1660 ca         1 92X      -0.109000
     28 C30         -4.2740     0.3000     1.6660 ca         1 92X      -0.044300
     29 C31         -3.7150    -0.8210     2.5370 c3         1 92X      -0.048800
     30 H1           0.0460    -3.6180    -2.4240 ha         1 92X       0.126000
     31 H2           0.6580     1.9920    -0.8690 hc         1 92X       0.059033
     32 H3           1.5670     1.3910     0.5360 hc         1 92X       0.059033
     33 H4           2.3320     1.6170    -1.0460 hc         1 92X       0.059033
     34 H5          -3.9100     1.7640    -1.4140 ha         1 92X       0.119000
     35 H6          -6.6200     2.7970     1.7780 ha         1 92X       0.112000
     36 H7           5.9220     2.7340     0.2210 hc         1 92X       0.080700
     37 H8           6.8280     1.2690     0.5760 hc         1 92X       0.080700
     38 H9           5.6960     1.9390     2.6450 hc         1 92X       0.057200
     39 H10          4.1550     2.1530     1.8110 hc         1 92X       0.057200
     40 H11          5.6580    -0.4890     2.1000 hc         1 92X       0.072200
     41 H12          4.2100    -0.0950     3.0450 hc         1 92X       0.072200
     42 H13          5.0100     0.7320    -2.4720 ho         1 92X       0.548000
     43 H14          2.3550    -2.8730    -2.5480 ha         1 92X       0.121000
     44 H15         -3.3370    -4.0550    -1.1570 h1         1 92X       0.057700
     45 H16         -2.3900    -3.8620    -2.6570 h1         1 92X       0.057700
     46 H17         -1.6110    -4.4330    -1.1490 h1         1 92X       0.057700
     47 H18         -5.7250     3.2070    -0.5120 ha         1 92X       0.115000
     48 H19         -5.7010     0.9560     3.1640 ha         1 92X       0.113000
     49 H20         -3.9600    -1.8040     2.1180 hc         1 92X       0.046367
     50 H21         -2.6240    -0.7520     2.6190 hc         1 92X       0.046367
     51 H22         -4.1210    -0.7870     3.5550 hc         1 92X       0.046367
     52 C17          1.4210     1.2770    -0.5440 c3         1 92X      -0.057800
     53 O9           3.0110    -1.3460     1.1830 o          1 92X      -0.534100
@<TRIPOS>BOND
     1     1    15 1   
     2     1    17 ar  
     3     1    19 ar  
     4     2    17 ar  
     5     2    18 ar  
     6     2    30 1   
     7     3    18 ar  
     8     3    19 ar  
     9     3    20 1   
    10     4     6 ar  
    11     4    21 1   
    12     4    28 ar  
    13     5    21 1   
    14     5    23 2   
    15     5    24 1   
    16     6    26 ar  
    17     6    34 1   
    18     7    26 ar  
    19     7    27 ar  
    20     7    35 1   
    21     8     9 1   
    22     8    13 1   
    23     8    36 1   
    24     8    37 1   
    25     9    10 1   
    26     9    38 1   
    27     9    39 1   
    28    10    11 1   
    29    10    40 1   
    30    10    41 1   
    31    11    12 1   
    32    11    53 2   
    33    12    13 2   
    34    12    15 1   
    35    13    14 1   
    36    14    42 1   
    37    15    16 2   
    38    17    43 1   
    39    18    24 1   
    40    19    52 1   
    41    20    21 1   
    42    20    22 2   
    43    24    25 1   
    44    25    44 1   
    45    25    45 1   
    46    25    46 1   
    47    26    47 1   
    48    27    28 ar  
    49    27    48 1   
    50    28    29 1   
    51    29    49 1   
    52    29    50 1   
    53    29    51 1   
    54    31    52 1   
    55    32    52 1   
    56    33    52 1   
@<TRIPOS>SUBSTRUCTURE
     1 92X         1 TEMP              0 ****  ****    0 ROOT
