@<TRIPOS>MOLECULE
92Y
   41    43     1     0     0
SMALL
abcg2


@<TRIPOS>ATOM
      1 C4          22.5430   -11.7740     7.8780 ca         1 92Y      -0.113500
      2 C5          23.7770   -11.8110     7.2350 ca         1 92Y      -0.113000
      3 C6          24.0250   -10.9290     6.1880 ca         1 92Y      -0.113500
      4 C7          23.0480   -10.0220     5.7890 ca         1 92Y      -0.100000
      5 C8          21.8040    -9.9730     6.4240 ca         1 92Y      -0.048300
      6 C10         20.8620    -7.6390     6.8300 c5         1 92Y       0.189300
      7 C13         19.3400    -8.0100     4.2760 c5         1 92Y      -0.077400
      8 C15         19.2800    -9.3030     6.2610 c5         1 92Y      -0.079400
      9 C17         19.9030    -4.4390     8.2030 c3         1 92Y       0.146600
     10 O1          21.9820    -6.8520     6.4600 oh         1 92Y      -0.683000
     11 C3          21.5710   -10.8630     7.4760 ca         1 92Y      -0.100000
     12 C9          20.7680    -8.9600     6.0170 c5         1 92Y      -0.020700
     13 C11         19.4660    -6.9600     6.5900 c5         1 92Y      -0.101700
     14 C12         18.7370    -7.9830     5.6890 c5         1 92Y      -0.068700
     15 C14         20.7570    -8.5980     4.5100 c5         1 92Y      -0.066400
     16 C16         19.5290    -5.5350     6.0530 c3         1 92Y       0.164800
     17 C18         20.6330    -3.3950     6.1640 c3         1 92Y       0.146600
     18 H1          22.3350   -12.4570     8.6930 ha         1 92Y       0.109000
     19 H2          24.5340   -12.5200     7.5450 ha         1 92Y       0.109000
     20 H3          24.9800   -10.9470     5.6780 ha         1 92Y       0.109000
     21 H4          23.2590    -9.3430     4.9730 ha         1 92Y       0.112000
     22 H5          20.9500    -7.9060     7.8900 h1         1 92Y       0.034700
     23 H6          19.3610    -7.0350     3.7910 hc         1 92Y       0.042200
     24 H7          18.7480    -8.6710     3.6410 hc         1 92Y       0.042200
     25 H8          19.0350    -9.4410     7.3140 hc         1 92Y       0.052200
     26 H9          18.9610   -10.1830     5.7000 hc         1 92Y       0.052200
     27 H10         20.5900    -3.7800     8.7360 h1         1 92Y       0.035867
     28 H11         18.9050    -3.9730     8.2000 h1         1 92Y       0.035867
     29 H12         19.8420    -5.3800     8.7480 h1         1 92Y       0.035867
     30 H13         21.7220    -5.9230     6.6720 ho         1 92Y       0.484000
     31 H15         20.6180   -10.8500     7.9890 ha         1 92Y       0.112000
     32 H16         18.9370    -6.9440     7.5450 hc         1 92Y       0.047700
     33 H17         17.6530    -7.8690     5.7020 hc         1 92Y       0.062700
     34 H18         20.9200    -9.4940     3.9110 hc         1 92Y       0.054200
     35 H19         21.5450    -7.8870     4.2700 hc         1 92Y       0.054200
     36 H20         19.9330    -5.5320     5.0420 h1         1 92Y       0.041200
     37 H21         18.5090    -5.1210     5.9930 h1         1 92Y       0.041200
     38 H22         21.3280    -2.7850     6.7410 h1         1 92Y       0.035867
     39 H23         21.0660    -3.5840     5.1810 h1         1 92Y       0.035867
     40 H24         19.7010    -2.8230     6.0280 h1         1 92Y       0.035867
     41 N2          20.4030    -4.6610     6.8500 n3         1 92Y      -0.737600
@<TRIPOS>BOND
     1     1     2 ar  
     2     1    11 ar  
     3     1    18 1   
     4     2     3 ar  
     5     2    19 1   
     6     3     4 ar  
     7     3    20 1   
     8     4     5 ar  
     9     4    21 1   
    10     5    11 ar  
    11     5    12 1   
    12     6    10 1   
    13     6    12 1   
    14     6    13 1   
    15     6    22 1   
    16     7    14 1   
    17     7    15 1   
    18     7    23 1   
    19     7    24 1   
    20     8    12 1   
    21     8    14 1   
    22     8    25 1   
    23     8    26 1   
    24     9    27 1   
    25     9    28 1   
    26     9    29 1   
    27     9    41 1   
    28    10    30 1   
    29    11    31 1   
    30    12    15 1   
    31    13    14 1   
    32    13    16 1   
    33    13    32 1   
    34    14    33 1   
    35    15    34 1   
    36    15    35 1   
    37    16    36 1   
    38    16    37 1   
    39    16    41 1   
    40    17    38 1   
    41    17    39 1   
    42    17    40 1   
    43    17    41 1   
@<TRIPOS>SUBSTRUCTURE
     1 92Y         1 TEMP              0 ****  ****    0 ROOT
