@<TRIPOS>MOLECULE
92Y
   41    43     1     0     0
SMALL
No Charge or Current Charge


@<TRIPOS>ATOM
      1 C4          22.4470   -12.0600     7.6450 ca         1 92Y      -0.113500
      2 C5          23.7740   -11.8940     7.2220 ca         1 92Y      -0.113000
      3 C6          24.1180   -10.7880     6.4310 ca         1 92Y      -0.113500
      4 C7          23.1350    -9.8530     6.0630 ca         1 92Y      -0.100000
      5 C8          21.7930   -10.0040     6.4760 ca         1 92Y      -0.048300
      6 C10         20.9000    -7.6030     6.8320 c5         1 92Y       0.189300
      7 C13         19.3190    -8.0910     4.2880 c5         1 92Y      -0.077400
      8 C15         19.2700    -9.3330     6.3430 c5         1 92Y      -0.079400
      9 C17         20.0660    -4.3540     8.2020 c3         1 92Y       0.146600
     10 O1          21.9710    -6.7650     6.4070 oh         1 92Y      -0.683000
     11 C3          21.4640   -11.1240     7.2780 ca         1 92Y      -0.100000
     12 C9          20.7450    -8.9560     6.0520 c5         1 92Y      -0.020700
     13 C11         19.4980    -6.9370     6.5940 c5         1 92Y      -0.101700
     14 C12         18.7250    -8.0170     5.7380 c5         1 92Y      -0.068700
     15 C14         20.7370    -8.7040     4.5070 c5         1 92Y      -0.066400
     16 C16         19.5010    -5.4740     6.0500 c3         1 92Y       0.164800
     17 C18         20.5700    -3.2570     6.0670 c3         1 92Y       0.146600
     18 H1          22.1780   -12.9160     8.2610 ha         1 92Y       0.109000
     19 H2          24.5340   -12.6190     7.5070 ha         1 92Y       0.109000
     20 H3          25.1460   -10.6530     6.1020 ha         1 92Y       0.109000
     21 H4          23.4230    -9.0000     5.4540 ha         1 92Y       0.112000
     22 H5          21.0150    -7.8110     7.9060 h1         1 92Y       0.034700
     23 H6          19.3450    -7.1320     3.7630 hc         1 92Y       0.042200
     24 H7          18.7120    -8.7560     3.6610 hc         1 92Y       0.042200
     25 H8          19.0370    -9.4420     7.4090 hc         1 92Y       0.052200
     26 H9          18.9300   -10.2320     5.8140 hc         1 92Y       0.052200
     27 H10         20.7710    -3.6620     8.6820 h1         1 92Y       0.035867
     28 H11         19.0550    -3.9370     8.3030 h1         1 92Y       0.035867
     29 H12         20.1080    -5.3000     8.7560 h1         1 92Y       0.035867
     30 H13         21.5820    -5.8500     6.5030 ho         1 92Y       0.484000
     31 H15         20.4480   -11.2850     7.6260 ha         1 92Y       0.112000
     32 H16         18.9910    -6.8700     7.5630 hc         1 92Y       0.047700
     33 H17         17.6340    -7.9140     5.7690 hc         1 92Y       0.062700
     34 H18         20.8450    -9.6410     3.9490 hc         1 92Y       0.054200
     35 H19         21.5390    -8.0390     4.1680 hc         1 92Y       0.054200
     36 H20         19.8080    -5.4950     4.9980 h1         1 92Y       0.041200
     37 H21         18.4730    -5.0890     6.0740 h1         1 92Y       0.041200
     38 H22         21.3080    -2.6210     6.5730 h1         1 92Y       0.035867
     39 H23         20.9130    -3.4140     5.0360 h1         1 92Y       0.035867
     40 H24         19.6150    -2.7150     6.0330 h1         1 92Y       0.035867
     41 N2          20.4180    -4.5500     6.7730 n3         1 92Y      -0.737600
@<TRIPOS>BOND
     1     1     2 ar  
     2     1    11 ar  
     3     1    18 1   
     4     2     3 ar  
     5     2    19 1   
     6     3     4 ar  
     7     3    20 1   
     8     4     5 ar  
     9     4    21 1   
    10     5    11 ar  
    11     5    12 1   
    12     6    10 1   
    13     6    12 1   
    14     6    13 1   
    15     6    22 1   
    16     7    14 1   
    17     7    15 1   
    18     7    23 1   
    19     7    24 1   
    20     8    12 1   
    21     8    14 1   
    22     8    25 1   
    23     8    26 1   
    24     9    27 1   
    25     9    28 1   
    26     9    29 1   
    27     9    41 1   
    28    10    30 1   
    29    11    31 1   
    30    12    15 1   
    31    13    14 1   
    32    13    16 1   
    33    13    32 1   
    34    14    33 1   
    35    15    34 1   
    36    15    35 1   
    37    16    36 1   
    38    16    37 1   
    39    16    41 1   
    40    17    38 1   
    41    17    39 1   
    42    17    40 1   
    43    17    41 1   
@<TRIPOS>SUBSTRUCTURE
     1 92Y         1 TEMP              0 ****  ****    0 ROOT
