@<TRIPOS>MOLECULE
92Z
   14    14     1     0     0
SMALL
No Charge or Current Charge


@<TRIPOS>ATOM
      1 O           -1.3160    -1.7230    -0.0600 o          1 92Z      -0.495100
      2 C4          -0.4120    -0.8970    -0.0460 c          1 92Z       0.683700
      3 C           -0.7040     0.6220    -0.0600 ce         1 92Z       0.016800
      4 N           -2.0480     1.0340    -0.0930 nv         1 92Z      -0.912000
      5 N1           0.9330    -1.2950    -0.0160 ne         1 92Z      -0.637100
      6 C3           1.9030    -0.4250     0.0020 c2         1 92Z       0.502200
      7 C2           1.7370     1.0870    -0.0060 c6         1 92Z      -0.146500
      8 C1           0.2870     1.5290    -0.0410 c2         1 92Z      -0.292200
      9 H1          -2.7990     0.3440    -0.0470 hn         1 92Z       0.455500
     10 H2          -2.2980     2.0210    -0.0230 hn         1 92Z       0.455500
     11 H3           2.9230    -0.8000     0.0250 h4         1 92Z       0.024800
     12 H4           2.2290     1.5010     0.8850 hc         1 92Z       0.078700
     13 H5           2.2720     1.4960    -0.8740 hc         1 92Z       0.078700
     14 H6           0.0890     2.6030    -0.0520 ha         1 92Z       0.187000
@<TRIPOS>BOND
     1     1     2 2   
     2     2     3 1   
     3     2     5 1   
     4     3     4 1   
     5     3     8 2   
     6     4     9 1   
     7     4    10 1   
     8     5     6 2   
     9     6     7 1   
    10     6    11 1   
    11     7     8 1   
    12     7    12 1   
    13     7    13 1   
    14     8    14 1   
@<TRIPOS>SUBSTRUCTURE
     1 92Z         1 TEMP              0 ****  ****    0 ROOT
