@<TRIPOS>MOLECULE
92Z
   14    14     1     0     0
SMALL
abcg2


@<TRIPOS>ATOM
      1 O           -1.3110    -1.6250    -0.0690 o          1 92Z      -0.495100
      2 C4          -0.4160    -0.8050    -0.0710 c          1 92Z       0.683700
      3 C           -0.7160     0.6460    -0.1130 ce         1 92Z       0.016800
      4 N           -2.0470     0.9730    -0.2550 nv         1 92Z      -0.912000
      5 N1           0.9090    -1.2510    -0.0250 ne         1 92Z      -0.637100
      6 C3           1.8540    -0.3970     0.0070 c2         1 92Z       0.502200
      7 C2           1.7050     1.0710     0.0040 c6         1 92Z      -0.146500
      8 C1           0.2990     1.5240    -0.0560 c2         1 92Z      -0.292200
      9 H1          -2.6930     0.3080     0.1400 hn         1 92Z       0.455500
     10 H2          -2.2820     1.9190    -0.0010 hn         1 92Z       0.455500
     11 H3           2.8700    -0.7850     0.0390 h4         1 92Z       0.024800
     12 H4           2.2200     1.4610     0.8920 hc         1 92Z       0.078700
     13 H5           2.2970     1.4660    -0.8320 hc         1 92Z       0.078700
     14 H6           0.1090     2.5910    -0.0660 ha         1 92Z       0.187000
@<TRIPOS>BOND
     1     1     2 2   
     2     2     3 1   
     3     2     5 1   
     4     3     4 1   
     5     3     8 2   
     6     4     9 1   
     7     4    10 1   
     8     5     6 2   
     9     6     7 1   
    10     6    11 1   
    11     7     8 1   
    12     7    12 1   
    13     7    13 1   
    14     8    14 1   
@<TRIPOS>SUBSTRUCTURE
     1 92Z         1 TEMP              0 ****  ****    0 ROOT
