@<TRIPOS>MOLECULE
930
   56    60     1     0     0
SMALL
bcc


@<TRIPOS>ATOM
      1 F2          -1.3070    -1.9940     1.6250 f          1 930      -0.148900
      2 C21         -1.9200    -1.4700     0.5520 ca         1 930       0.119900
      3 C15         -1.5380    -1.9000    -0.7110 ca         1 930       0.010600
      4 C22         -2.2090    -1.3600    -1.8030 ca         1 930      -0.093000
      5 C26         -3.2030    -0.4130    -1.6220 ca         1 930      -0.133000
      6 C27         -3.5520     0.0250    -0.3480 ca         1 930      -0.049300
      7 C28         -4.5670     1.1230    -0.1830 c5         1 930       0.204800
      8 C7          -3.9470     2.5190    -0.3810 c5         1 930      -0.074400
      9 C11         -4.7520     3.4430     0.5520 c5         1 930      -0.080400
     10 C8          -5.7580     2.5110     1.2340 c5         1 930       0.153800
     11 N4          -5.1200     1.2060     1.1550 n7         1 930      -0.808200
     12 C24         -2.9040    -0.5250     0.7500 ca         1 930      -0.142000
     13 N2          -0.4840    -2.8170    -0.8720 n          1 930      -0.399000
     14 C50          0.6550    -2.5060    -1.5440 c          1 930       0.671500
     15 O3           0.8570    -1.5100    -2.2020 o          1 930      -0.582500
     16 C12          1.6540    -3.6310    -1.2650 c5         1 930       0.163500
     17 C13          0.7260    -4.8060    -1.0000 c5         1 930      -0.107400
     18 C14         -0.4780    -4.1620    -0.3100 c5         1 930       0.102000
     19 N1           2.4310    -3.3570    -0.0590 n7         1 930      -0.851100
     20 S1           3.4260    -2.0630     0.1190 sy         1 930       1.319200
     21 O2           4.1500    -2.3020     1.3560 o          1 930      -0.602300
     22 O1           4.1430    -1.8960    -1.1330 o          1 930      -0.602300
     23 C6           2.4050    -0.6390     0.3740 ca         1 930      -0.306500
     24 C16          1.5580    -0.6170     1.5020 ca         1 930      -0.055000
     25 C18          0.7240     0.4460     1.6940 ca         1 930      -0.125000
     26 C17          0.7100     1.5270     0.7820 ca         1 930       0.012000
     27 C4           1.5830     1.5010    -0.3330 ca         1 930      -0.063000
     28 C5           2.4290     0.3880    -0.5240 ca         1 930       0.038000
     29 C9          -0.1540     2.6300     0.9600 ca         1 930      -0.124000
     30 C1          -0.1300     3.6550     0.0580 ca         1 930       0.045400
     31 CL1         -1.1870     5.0100     0.2670 cl         1 930      -0.110400
     32 C2           0.7360     3.6470    -1.0540 ca         1 930      -0.133000
     33 C3           1.5740     2.5850    -1.2390 ca         1 930      -0.083000
     34 H24         -3.1590    -0.2090     1.7530 ha         1 930       0.170000
     35 H22         -1.9520    -1.6910    -2.8000 ha         1 930       0.149000
     36 H26         -3.7130    -0.0080    -2.4880 ha         1 930       0.139000
     37 H28         -5.3530     0.9800    -0.9430 h1         1 930       0.030700
     38 H71C        -2.8940     2.5010    -0.0990 hc         1 930       0.054200
     39 H72C        -3.9930     2.8220    -1.4270 hc         1 930       0.054200
     40 H4          -5.7770     0.4570     1.3330 hn         1 930       0.359800
     41 H111        -4.0930     3.9130     1.2820 hc         1 930       0.050200
     42 H112        -5.2560     4.2440     0.0130 hc         1 930       0.050200
     43 H81C        -5.9570     2.7870     2.2720 h1         1 930       0.036700
     44 H82C        -6.7170     2.5410     0.6970 h1         1 930       0.036700
     45 H141        -0.3670    -4.1480     0.7760 h1         1 930       0.057700
     46 H142        -1.4100    -4.6760    -0.5440 h1         1 930       0.057700
     47 H12          2.3290    -3.7850    -2.1060 h1         1 930       0.116700
     48 H131         0.4260    -5.2380    -1.9550 hc         1 930       0.073200
     49 H132         1.1850    -5.5930    -0.4040 hc         1 930       0.073200
     50 H1           2.0480    -3.6980     0.8150 hn         1 930       0.439800
     51 H16          1.5610    -1.4320     2.2130 ha         1 930       0.139000
     52 H5           3.0790     0.3640    -1.3890 ha         1 930       0.165000
     53 H18          0.0650     0.4670     2.5510 ha         1 930       0.140000
     54 H9          -0.8280     2.6480     1.8070 ha         1 930       0.152000
     55 H3           2.2400     2.5690    -2.0930 ha         1 930       0.144000
     56 H2           0.7300     4.4740    -1.7510 ha         1 930       0.149000
@<TRIPOS>BOND
     1     1     2 1   
     2     2     3 ar  
     3     2    12 ar  
     4     3     4 ar  
     5     3    13 1   
     6     4     5 ar  
     7     4    35 1   
     8     5     6 ar  
     9     5    36 1   
    10     6     7 1   
    11     6    12 ar  
    12     7     8 1   
    13     7    11 1   
    14     7    37 1   
    15     8     9 1   
    16     8    38 1   
    17     8    39 1   
    18     9    10 1   
    19     9    41 1   
    20     9    42 1   
    21    10    11 1   
    22    10    43 1   
    23    10    44 1   
    24    11    40 1   
    25    12    34 1   
    26    13    14 1   
    27    13    18 1   
    28    14    15 2   
    29    14    16 1   
    30    16    17 1   
    31    16    19 1   
    32    16    47 1   
    33    17    18 1   
    34    17    48 1   
    35    17    49 1   
    36    18    45 1   
    37    18    46 1   
    38    19    20 1   
    39    19    50 1   
    40    20    21 2   
    41    20    22 2   
    42    20    23 1   
    43    23    24 ar  
    44    23    28 ar  
    45    24    25 ar  
    46    24    51 1   
    47    25    26 ar  
    48    25    53 1   
    49    26    27 ar  
    50    26    29 ar  
    51    27    28 ar  
    52    27    33 ar  
    53    28    52 1   
    54    29    30 ar  
    55    29    54 1   
    56    30    31 1   
    57    30    32 ar  
    58    32    33 ar  
    59    32    56 1   
    60    33    55 1   
@<TRIPOS>SUBSTRUCTURE
     1 930         1 TEMP              0 ****  ****    0 ROOT
