@<TRIPOS>MOLECULE
930
   56    60     1     0     0
SMALL
No Charge or Current Charge


@<TRIPOS>ATOM
      1 F2          -1.2350    -1.4320     1.6300 f          1 930      -0.184000
      2 C21         -1.8600    -1.1070     0.4760 ca         1 930       0.155000
      3 C15         -1.5420    -1.7690    -0.7360 ca         1 930      -0.082000
      4 C22         -2.1250    -1.2720    -1.9220 ca         1 930      -0.075000
      5 C26         -3.1010    -0.2610    -1.8820 ca         1 930      -0.115000
      6 C27         -3.4820     0.3270    -0.6620 ca         1 930      -0.049300
      7 C28         -4.5650     1.4090    -0.6400 c5         1 930       0.204800
      8 C7          -3.8770     2.7630    -0.3570 c5         1 930      -0.074400
      9 C11         -5.0980     3.6560     0.0140 c5         1 930      -0.080400
     10 C8          -6.1740     2.6370     0.5060 c5         1 930       0.153800
     11 N4          -5.4980     1.3200     0.4950 n7         1 930      -0.863400
     12 C24         -2.8330    -0.0950     0.5140 ca         1 930      -0.124000
     13 N2          -0.4440    -2.7110    -0.8010 n          1 930      -0.239400
     14 C50          0.5810    -2.6920    -1.7680 c          1 930       0.529000
     15 O3           0.6420    -1.9480    -2.7390 o          1 930      -0.507000
     16 C12          1.5930    -3.7930    -1.3210 c5         1 930       0.163500
     17 C13          0.6840    -4.7780    -0.5400 c5         1 930      -0.107400
     18 C14         -0.3000    -3.8090     0.1840 c5         1 930       0.102000
     19 N1           2.6510    -3.3650    -0.3340 n7         1 930      -0.906300
     20 S1           3.6850    -2.1000    -0.6650 sy         1 930       1.177600
     21 O2           4.9050    -2.3960     0.0880 o          1 930      -0.531500
     22 O1           3.6840    -1.9230    -2.1180 o          1 930      -0.531500
     23 C6           2.7510    -0.7870     0.1230 ca         1 930      -0.306500
     24 C16          2.7280    -0.6840     1.5300 ca         1 930      -0.037000
     25 C18          1.9540     0.3100     2.1490 ca         1 930      -0.107000
     26 C17          1.2000     1.2080     1.3730 ca         1 930       0.012000
     27 C4           1.2250     1.1130    -0.0350 ca         1 930      -0.063000
     28 C5           2.0050     0.1200    -0.6580 ca         1 930       0.056000
     29 C9           0.4270     2.2060     1.9950 ca         1 930      -0.106000
     30 C1          -0.3130     3.1090     1.2160 ca         1 930       0.137000
     31 Cl1         -1.2580     4.3700     1.9970 cl         1 930      -0.202000
     32 C2          -0.2920     3.0150    -0.1850 ca         1 930      -0.115000
     33 C3           0.4710     2.0150    -0.8120 ca         1 930      -0.065000
     34 H24         -3.0790     0.3680     1.4660 ha         1 930       0.152000
     35 H22         -1.8630    -1.7010    -2.8850 ha         1 930       0.131000
     36 H26         -3.5650     0.0670    -2.8090 ha         1 930       0.121000
     37 H28         -5.1170     1.4370    -1.5910 h1         1 930       0.030700
     38 H71C        -3.1790     2.6930     0.4830 hc         1 930       0.054200
     39 H72C        -3.3220     3.1420    -1.2220 hc         1 930       0.054200
     40 H4          -6.1780     0.5640     0.3460 hn         1 930       0.415000
     41 H111        -4.8410     4.3880     0.7880 hc         1 930       0.050200
     42 H112        -5.4640     4.2170    -0.8530 hc         1 930       0.050200
     43 H81C        -6.5560     2.8820     1.5060 h1         1 930       0.036700
     44 H82C        -7.0280     2.6300    -0.1860 h1         1 930       0.036700
     45 H141         0.1270    -3.4400     1.1250 h1         1 930       0.057700
     46 H142        -1.2620    -4.2890     0.4070 h1         1 930       0.057700
     47 H12          2.0300    -4.2530    -2.2190 h1         1 930       0.116700
     48 H131         0.1370    -5.4240    -1.2370 hc         1 930       0.073200
     49 H132         1.2280    -5.4360     0.1470 hc         1 930       0.073200
     50 H1           2.2000    -2.9850     0.4960 hn         1 930       0.495000
     51 H16          3.3040    -1.3730     2.1470 ha         1 930       0.121000
     52 H5           2.0230     0.0600    -1.7450 ha         1 930       0.147000
     53 H18          1.9410     0.3800     3.2350 ha         1 930       0.122000
     54 H9           0.4040     2.2880     3.0780 ha         1 930       0.134000
     55 H3           0.4810     1.9480    -1.8980 ha         1 930       0.126000
     56 H2          -0.8630     3.7190    -0.7840 ha         1 930       0.131000
@<TRIPOS>BOND
     1     1     2 1   
     2     2     3 ar  
     3     2    12 ar  
     4     3     4 ar  
     5     3    13 1   
     6     4     5 ar  
     7     4    35 1   
     8     5     6 ar  
     9     5    36 1   
    10     6     7 1   
    11     6    12 ar  
    12     7     8 1   
    13     7    11 1   
    14     7    37 1   
    15     8     9 1   
    16     8    38 1   
    17     8    39 1   
    18     9    10 1   
    19     9    41 1   
    20     9    42 1   
    21    10    11 1   
    22    10    43 1   
    23    10    44 1   
    24    11    40 1   
    25    12    34 1   
    26    13    14 1   
    27    13    18 1   
    28    14    15 2   
    29    14    16 1   
    30    16    17 1   
    31    16    19 1   
    32    16    47 1   
    33    17    18 1   
    34    17    48 1   
    35    17    49 1   
    36    18    45 1   
    37    18    46 1   
    38    19    20 1   
    39    19    50 1   
    40    20    21 2   
    41    20    22 2   
    42    20    23 1   
    43    23    24 ar  
    44    23    28 ar  
    45    24    25 ar  
    46    24    51 1   
    47    25    26 ar  
    48    25    53 1   
    49    26    27 ar  
    50    26    29 ar  
    51    27    28 ar  
    52    27    33 ar  
    53    28    52 1   
    54    29    30 ar  
    55    29    54 1   
    56    30    31 1   
    57    30    32 ar  
    58    32    33 ar  
    59    32    56 1   
    60    33    55 1   
@<TRIPOS>SUBSTRUCTURE
     1 930         1 TEMP              0 ****  ****    0 ROOT
