@<TRIPOS>MOLECULE
931
   56    60     1     0     0
SMALL
No Charge or Current Charge


@<TRIPOS>ATOM
      1 F1           0.7590     1.0170     2.2110 f          1 931      -0.187000
      2 C7           1.6000     0.8860     1.1620 ca         1 931       0.157000
      3 C6           2.5200    -0.1750     1.1920 ca         1 931      -0.148000
      4 C1           5.9760    -1.9920    -1.5560 c5         1 931       0.143800
      5 N1           5.7650    -1.2150    -0.3110 n7         1 931      -0.850400
      6 C11          3.3950    -0.4040     0.1160 ca         1 931      -0.041300
      7 C10          3.3100     0.4470    -1.0030 ca         1 931      -0.091000
      8 C9           2.3860     1.5050    -1.0380 ca         1 931      -0.078000
      9 C8           1.5530     1.7890     0.0680 ca         1 931      -0.086000
     10 N2           0.4830     2.7640    -0.0500 n          1 931      -0.239400
     11 C25         -0.2670     3.0110    -1.2200 c          1 931       0.526000
     12 O3          -0.0380     2.5710    -2.3400 o          1 931      -0.502000
     13 C12          0.0570     3.6010     1.0990 c5         1 931       0.102000
     14 C13         -0.8120     4.7020     0.4170 c5         1 931      -0.108400
     15 C14         -1.4410     3.9300    -0.7700 c5         1 931       0.160500
     16 N3          -2.6500     3.2280    -0.2020 n7         1 931      -0.900300
     17 S1          -3.4550     2.0540    -1.0790 sy         1 931       1.167600
     18 C70          3.8660    -2.6770    -0.7820 c5         1 931      -0.098400
     19 O2          -4.7570     1.9270    -0.4230 o          1 931      -0.528000
     20 O1          -3.3280     2.4280    -2.4890 o          1 931      -0.528000
     21 C15         -2.4240     0.6300    -0.7100 ca         1 931      -0.290500
     22 C80          5.1870    -3.2910    -1.2970 c5         1 931      -0.112400
     23 C24         -2.3740     0.1190     0.6030 ca         1 931       0.014000
     24 C16         -1.6340     0.0400    -1.7200 ca         1 931      -0.002000
     25 C17         -0.7730    -1.0250    -1.4090 ca         1 931      -0.110000
     26 C18         -0.6990    -1.5150    -0.0940 ca         1 931       0.014000
     27 C19          0.1800    -2.5660     0.2220 ca         1 931      -0.104000
     28 C20          0.2610    -3.0420     1.5400 ca         1 931       0.134000
     29 Cl1          1.3740    -4.3440     1.9360 cl         1 931      -0.202000
     30 C23         -1.5070    -0.9460     0.9150 ca         1 931      -0.065000
     31 C22         -1.4290    -1.4350     2.2340 ca         1 931      -0.068000
     32 C21         -0.5420    -2.4800     2.5450 ca         1 931      -0.119000
     33 C28          4.3970    -1.5630     0.1720 c5         1 931       0.200800
     34 H6           2.5390    -0.8320     2.0570 ha         1 931       0.130000
     35 H12C         7.0420    -2.1780    -1.7510 h1         1 931       0.055200
     36 H1           6.4320    -1.5570     0.3910 hn         1 931       0.409000
     37 H801         5.0520    -3.8920    -2.2040 hc         1 931       0.051200
     38 H802         5.6720    -3.9220    -0.5420 hc         1 931       0.051200
     39 H28          4.4670    -1.9490     1.2000 h1         1 931       0.050700
     40 H10          3.9620     0.2840    -1.8570 ha         1 931       0.144000
     41 H9           2.3580     2.1320    -1.9260 ha         1 931       0.131000
     42 H121        -0.5430     3.0200     1.8110 h1         1 931       0.057200
     43 H122         0.9140     4.0270     1.6380 h1         1 931       0.057200
     44 H14         -1.7060     4.5950    -1.6050 h1         1 931       0.117700
     45 H131        -1.5470     5.1540     1.0930 hc         1 931       0.073700
     46 H132        -0.1750     5.5150     0.0470 hc         1 931       0.073700
     47 H3          -2.3660     2.6730     0.6010 hn         1 931       0.491000
     48 H701         3.2730    -2.2750    -1.6120 hc         1 931       0.056700
     49 H702         3.2410    -3.4090    -0.2600 hc         1 931       0.056700
     50 H24         -2.9920     0.5550     1.3870 ha         1 931       0.120000
     51 H16         -1.6650     0.4140    -2.7420 ha         1 931       0.150000
     52 H17         -0.1550    -1.4590    -2.1910 ha         1 931       0.122000
     53 H19          0.8020    -3.0100    -0.5500 ha         1 931       0.133000
     54 H21         -0.4760    -2.8520     3.5640 ha         1 931       0.130000
     55 H22         -2.0450    -1.0010     3.0190 ha         1 931       0.123000
     56 H11C         5.5660    -1.4560    -2.4250 h1         1 931       0.055200
@<TRIPOS>BOND
     1     1     2 1   
     2     2     3 ar  
     3     2     9 ar  
     4     3     6 ar  
     5     3    34 1   
     6     4     5 1   
     7     4    22 1   
     8     4    35 1   
     9     4    56 1   
    10     5    33 1   
    11     5    36 1   
    12     6     7 ar  
    13     6    33 1   
    14     7     8 ar  
    15     7    40 1   
    16     8     9 ar  
    17     8    41 1   
    18     9    10 1   
    19    10    11 1   
    20    10    13 1   
    21    11    12 2   
    22    11    15 1   
    23    13    14 1   
    24    13    42 1   
    25    13    43 1   
    26    14    15 1   
    27    14    45 1   
    28    14    46 1   
    29    15    16 1   
    30    15    44 1   
    31    16    17 1   
    32    16    47 1   
    33    17    19 2   
    34    17    20 2   
    35    17    21 1   
    36    18    22 1   
    37    18    33 1   
    38    18    48 1   
    39    18    49 1   
    40    21    23 ar  
    41    21    24 ar  
    42    22    37 1   
    43    22    38 1   
    44    23    30 ar  
    45    23    50 1   
    46    24    25 ar  
    47    24    51 1   
    48    25    26 ar  
    49    25    52 1   
    50    26    27 ar  
    51    26    30 ar  
    52    27    28 ar  
    53    27    53 1   
    54    28    29 1   
    55    28    32 ar  
    56    30    31 ar  
    57    31    32 ar  
    58    31    55 1   
    59    32    54 1   
    60    33    39 1   
@<TRIPOS>SUBSTRUCTURE
     1 931         1 TEMP              0 ****  ****    0 ROOT
