@<TRIPOS>MOLECULE
931
   56    60     1     0     0
SMALL
bcc


@<TRIPOS>ATOM
      1 F1           0.5790     1.0480     2.0370 f          1 931      -0.151900
      2 C7           1.5530     0.9760     1.1180 ca         1 931       0.121900
      3 C6           2.5100    -0.0060     1.2380 ca         1 931      -0.166000
      4 C1           5.5320    -2.2240    -1.4730 c5         1 931       0.143800
      5 N1           5.6430    -1.1070    -0.5380 n7         1 931      -0.795200
      6 C11          3.5300    -0.0950     0.2930 ca         1 931      -0.041300
      7 C10          3.5640     0.8340    -0.7400 ca         1 931      -0.109000
      8 C9           2.5930     1.8200    -0.8420 ca         1 931      -0.096000
      9 C8           1.5630     1.9050     0.0850 ca         1 931       0.006600
     10 N2           0.5430     2.8660    -0.0270 n          1 931      -0.399000
     11 C25         -0.2860     2.9280    -1.0990 c          1 931       0.668500
     12 O3          -0.1930     2.2880    -2.1230 o          1 931      -0.577500
     13 C12          0.2570     3.8730     0.9890 c5         1 931       0.102000
     14 C13         -0.6860     4.8260     0.2530 c5         1 931      -0.108400
     15 C14         -1.3920     3.9230    -0.7470 c5         1 931       0.160500
     16 N3          -2.5070     3.2560    -0.0790 n7         1 931      -0.845100
     17 S1          -3.3720     2.0330    -0.7550 sy         1 931       1.309200
     18 C70          3.8590    -2.5920     0.1530 c5         1 931      -0.098400
     19 O2          -4.5070     1.8320     0.1290 o          1 931      -0.598800
     20 O1          -3.5790     2.3800    -2.1500 o          1 931      -0.598800
     21 C15         -2.3890     0.5540    -0.6920 ca         1 931      -0.290500
     22 C80          4.8820    -3.3540    -0.6810 c5         1 931      -0.112400
     23 C24         -2.0530     0.0440     0.5340 ca         1 931      -0.004000
     24 C16         -1.9940    -0.0760    -1.8870 ca         1 931      -0.020000
     25 C17         -1.2540    -1.2220    -1.8250 ca         1 931      -0.128000
     26 C18         -0.8730    -1.7750    -0.5820 ca         1 931       0.014000
     27 C19         -0.1070    -2.9610    -0.5060 ca         1 931      -0.122000
     28 C20          0.2220    -3.4700     0.7160 ca         1 931       0.042400
     29 CL1          1.1390    -4.9340     0.8190 cl         1 931      -0.110400
     30 C23         -1.2810    -1.1330     0.6140 ca         1 931      -0.065000
     31 C22         -0.9100    -1.6950     1.8570 ca         1 931      -0.086000
     32 C21         -0.1720    -2.8420     1.9150 ca         1 931      -0.137000
     33 C28          4.5350    -1.2160     0.4110 c5         1 931       0.200800
     34 H6           2.4460    -0.7100     2.0590 ha         1 931       0.148000
     35 H12C         6.5110    -2.4750    -1.8820 h1         1 931       0.055200
     36 H1           6.5130    -1.1900    -0.0320 hn         1 931       0.353800
     37 H801         4.4260    -4.1230    -1.3080 hc         1 931       0.051200
     38 H802         5.6240    -3.8390    -0.0420 hc         1 931       0.051200
     39 H28          4.9350    -1.1960     1.4290 h1         1 931       0.050700
     40 H10          4.3640     0.7850    -1.4660 ha         1 931       0.162000
     41 H9           2.6390     2.5390    -1.6490 ha         1 931       0.149000
     42 H121        -0.2120     3.4340     1.8720 h1         1 931       0.057200
     43 H122         1.1760     4.3630     1.3080 h1         1 931       0.057200
     44 H14         -1.7560     4.4470    -1.6290 h1         1 931       0.117700
     45 H131        -1.3690     5.3510     0.9190 hc         1 931       0.073700
     46 H132        -0.1100     5.5710    -0.2970 hc         1 931       0.073700
     47 H3          -2.4590     3.2020     0.9320 hn         1 931       0.435800
     48 H701         2.9340    -2.4590    -0.4120 hc         1 931       0.056700
     49 H702         3.5930    -3.0940     1.0830 hc         1 931       0.056700
     50 H24         -2.3730     0.5180     1.4540 ha         1 931       0.138000
     51 H16         -2.2720     0.3410    -2.8430 ha         1 931       0.168000
     52 H17         -0.9500    -1.7150    -2.7400 ha         1 931       0.140000
     53 H19          0.2030    -3.4550    -1.4180 ha         1 931       0.151000
     54 H21          0.1070    -3.2690     2.8680 ha         1 931       0.148000
     55 H22         -1.2230    -1.2120     2.7730 ha         1 931       0.141000
     56 H11C         4.8920    -1.9400    -2.3160 h1         1 931       0.055200
@<TRIPOS>BOND
     1     1     2 1   
     2     2     3 ar  
     3     2     9 ar  
     4     3     6 ar  
     5     3    34 1   
     6     4     5 1   
     7     4    22 1   
     8     4    35 1   
     9     4    56 1   
    10     5    33 1   
    11     5    36 1   
    12     6     7 ar  
    13     6    33 1   
    14     7     8 ar  
    15     7    40 1   
    16     8     9 ar  
    17     8    41 1   
    18     9    10 1   
    19    10    11 1   
    20    10    13 1   
    21    11    12 2   
    22    11    15 1   
    23    13    14 1   
    24    13    42 1   
    25    13    43 1   
    26    14    15 1   
    27    14    45 1   
    28    14    46 1   
    29    15    16 1   
    30    15    44 1   
    31    16    17 1   
    32    16    47 1   
    33    17    19 2   
    34    17    20 2   
    35    17    21 1   
    36    18    22 1   
    37    18    33 1   
    38    18    48 1   
    39    18    49 1   
    40    21    23 ar  
    41    21    24 ar  
    42    22    37 1   
    43    22    38 1   
    44    23    30 ar  
    45    23    50 1   
    46    24    25 ar  
    47    24    51 1   
    48    25    26 ar  
    49    25    52 1   
    50    26    27 ar  
    51    26    30 ar  
    52    27    28 ar  
    53    27    53 1   
    54    28    29 1   
    55    28    32 ar  
    56    30    31 ar  
    57    31    32 ar  
    58    31    55 1   
    59    32    54 1   
    60    33    39 1   
@<TRIPOS>SUBSTRUCTURE
     1 931         1 TEMP              0 ****  ****    0 ROOT
