@<TRIPOS>MOLECULE
932
   43    46     1     0     0
SMALL
No Charge or Current Charge


@<TRIPOS>ATOM
      1 C1          -3.3740     0.3600     0.4190 ca         1 932      -0.014000
      2 N2          -2.6430     0.8140    -0.7500 n          1 932      -0.210400
      3 C3          -3.2540     0.8950    -2.0280 c          1 932       0.579000
      4 C4          -4.7720     0.7150    -2.0900 c6         1 932      -0.154400
      5 C5          -5.2470    -0.3950    -1.1370 c6         1 932      -0.027100
      6 C6          -4.6760    -0.1770     0.2610 ca         1 932      -0.110300
      7 C7          -2.9230     0.6440     1.7310 ca         1 932      -0.147000
      8 C8          -3.6960     0.2920     2.8500 ca         1 932      -0.083000
      9 C9          -4.9510    -0.3080     2.6780 ca         1 932      -0.127000
     10 C10         -5.4440    -0.5330     1.3850 ca         1 932      -0.079000
     11 C11         -1.1620     1.0150    -0.6610 c3         1 932       0.014000
     12 C12         -0.3420    -0.2760    -0.4860 c          1 932       0.581100
     13 O13         -0.8370    -1.3950    -0.5420 o          1 932      -0.565100
     14 N14          1.0070    -0.0610    -0.2770 ns         1 932      -0.381100
     15 C15          2.0340    -0.9820    -0.0830 cc         1 932      -0.014400
     16 S16          1.8550    -2.7390    -0.0550 ss         1 932       0.326000
     17 C17          3.5750    -2.9350     0.2270 cc         1 932      -0.297000
     18 C18          4.2430    -1.7380     0.2960 cd         1 932      -0.052300
     19 C19          3.3570    -0.6120     0.1180 cd         1 932      -0.265500
     20 C20          3.7630     0.7920     0.1390 cd         1 932       0.544000
     21 N21          5.0540     1.2440     0.3330 na         1 932      -0.188700
     22 N22          5.1000     2.6210     0.2970 nd         1 932      -0.538800
     23 C23          3.8280     2.9040     0.0840 cc         1 932       0.538900
     24 N24          2.9760     1.8430    -0.0200 nc         1 932      -0.778000
     25 C25          5.7340    -1.6890     0.5340 c3         1 932      -0.038800
     26 O26         -2.6150     1.0820    -3.0580 o          1 932      -0.541000
     27 H4          -5.2020     1.6470    -1.7010 hc         1 932       0.077200
     28 H4A         -5.1090     0.5780    -3.1250 hc         1 932       0.077200
     29 H5          -6.3450    -0.4170    -1.1110 hc         1 932       0.063200
     30 H5A         -4.9220    -1.3750    -1.5150 hc         1 932       0.063200
     31 H7          -1.9680     1.1270     1.9100 ha         1 932       0.116000
     32 H8          -3.3240     0.4930     3.8530 ha         1 932       0.116000
     33 H9          -5.5490    -0.5790     3.5450 ha         1 932       0.117000
     34 H10         -6.4310    -0.9740     1.2580 ha         1 932       0.114000
     35 H11         -0.7850     1.5120    -1.5620 h1         1 932       0.089700
     36 H11A        -0.9270     1.6900     0.1680 h1         1 932       0.089700
     37 HN14         1.2880     0.9180    -0.2620 hn         1 932       0.379500
     38 H17          3.9710    -3.9380     0.3230 h4         1 932       0.152000
     39 H23          3.4370     3.9110    -0.0110 h5         1 932       0.062100
     40 H25          6.2570    -1.2110    -0.3020 hc         1 932       0.044033
     41 H25A         5.9740    -1.1550     1.4610 hc         1 932       0.044033
     42 H25B         6.1490    -2.7000     0.6330 hc         1 932       0.044033
     43 HN21         5.8710     0.6660     0.4820 hn         1 932       0.383000
@<TRIPOS>BOND
     1     1     2 1   
     2     1     6 ar  
     3     1     7 ar  
     4     2     3 1   
     5     2    11 1   
     6     3     4 1   
     7     3    26 2   
     8     4     5 1   
     9     4    27 1   
    10     4    28 1   
    11     5     6 1   
    12     5    29 1   
    13     5    30 1   
    14     6    10 ar  
    15     7     8 ar  
    16     7    31 1   
    17     8     9 ar  
    18     8    32 1   
    19     9    10 ar  
    20     9    33 1   
    21    10    34 1   
    22    11    12 1   
    23    11    35 1   
    24    11    36 1   
    25    12    13 2   
    26    12    14 1   
    27    14    15 1   
    28    14    37 1   
    29    15    16 1   
    30    15    19 2   
    31    16    17 1   
    32    17    18 2   
    33    17    38 1   
    34    18    19 1   
    35    18    25 1   
    36    19    20 1   
    37    20    21 1   
    38    20    24 2   
    39    21    22 1   
    40    21    43 1   
    41    22    23 2   
    42    23    24 1   
    43    23    39 1   
    44    25    40 1   
    45    25    41 1   
    46    25    42 1   
@<TRIPOS>SUBSTRUCTURE
     1 932         1 TEMP              0 ****  ****    0 ROOT
