@<TRIPOS>MOLECULE
932
   43    46     1     0     0
SMALL
abcg2


@<TRIPOS>ATOM
      1 C1          -3.1790     0.4940     0.2500 ca         1 932      -0.014000
      2 N2          -2.6410     0.8390    -1.0090 n          1 932      -0.210400
      3 C3          -3.3930     0.8400    -2.1560 c          1 932       0.579000
      4 C4          -4.8420     0.4750    -1.9850 c6         1 932      -0.154400
      5 C5          -5.0080    -0.6490    -0.9780 c6         1 932      -0.027100
      6 C6          -4.3600    -0.2520     0.3110 ca         1 932      -0.110300
      7 C7          -2.5390     0.8670     1.4290 ca         1 932      -0.147000
      8 C8          -3.0700     0.5000     2.6590 ca         1 932      -0.083000
      9 C9          -4.2440    -0.2320     2.7260 ca         1 932      -0.127000
     10 C10         -4.8810    -0.5990     1.5480 ca         1 932      -0.079000
     11 C11         -1.2360     1.1330    -1.1040 c3         1 932       0.014000
     12 C12         -0.4060    -0.1050    -0.8220 c          1 932       0.581100
     13 O13         -0.8270    -1.2330    -0.9850 o          1 932      -0.565100
     14 N14          0.8580     0.1540    -0.4140 ns         1 932      -0.381100
     15 C15          1.8170    -0.8060    -0.1950 cc         1 932      -0.014400
     16 S16          1.5040    -2.4880    -0.3640 ss         1 932       0.326000
     17 C17          3.1280    -2.8620     0.0660 cc         1 932      -0.297000
     18 C18          3.8820    -1.7660     0.3280 cd         1 932      -0.052300
     19 C19          3.1220    -0.5550     0.1790 cd         1 932      -0.265500
     20 C20          3.5970     0.7990     0.3800 cd         1 932       0.544000
     21 N21          4.8360     1.1810     0.7150 na         1 932      -0.188700
     22 N22          4.9180     2.5110     0.8140 nd         1 932      -0.538800
     23 C23          3.7000     2.8980     0.5300 cc         1 932       0.538900
     24 N24          2.8510     1.8890     0.2570 nc         1 932      -0.778000
     25 C25          5.3250    -1.8470     0.7130 c3         1 932      -0.038800
     26 O26         -2.9150     1.1360    -3.2360 o          1 932      -0.541000
     27 H4          -5.3810     1.3660    -1.6450 hc         1 932       0.077200
     28 H4A         -5.2420     0.2070    -2.9610 hc         1 932       0.077200
     29 H5          -6.0640    -0.8750    -0.8290 hc         1 932       0.063200
     30 H5A         -4.5400    -1.5620    -1.3630 hc         1 932       0.063200
     31 H7          -1.6320     1.4540     1.4170 ha         1 932       0.116000
     32 H8          -2.5590     0.7980     3.5640 ha         1 932       0.116000
     33 H9          -4.6630    -0.5120     3.6830 ha         1 932       0.117000
     34 H10         -5.8000    -1.1720     1.5860 ha         1 932       0.114000
     35 H11         -1.0180     1.4530    -2.1230 h1         1 932       0.089700
     36 H11A        -0.9490     1.9660    -0.4600 h1         1 932       0.089700
     37 HN14         1.1850     1.1130    -0.2690 hn         1 932       0.379500
     38 H17          3.4460    -3.8930     0.1020 h4         1 932       0.152000
     39 H23          3.4110     3.9370     0.5200 h5         1 932       0.062100
     40 H25          5.9700    -1.3550    -0.0190 hc         1 932       0.044033
     41 H25A         5.5170    -1.4010     1.6910 hc         1 932       0.044033
     42 H25B         5.6440    -2.8860     0.7710 hc         1 932       0.044033
     43 HN21         5.6530     0.6160     0.8850 hn         1 932       0.383000
@<TRIPOS>BOND
     1     1     2 1   
     2     1     6 ar  
     3     1     7 ar  
     4     2     3 1   
     5     2    11 1   
     6     3     4 1   
     7     3    26 2   
     8     4     5 1   
     9     4    27 1   
    10     4    28 1   
    11     5     6 1   
    12     5    29 1   
    13     5    30 1   
    14     6    10 ar  
    15     7     8 ar  
    16     7    31 1   
    17     8     9 ar  
    18     8    32 1   
    19     9    10 ar  
    20     9    33 1   
    21    10    34 1   
    22    11    12 1   
    23    11    35 1   
    24    11    36 1   
    25    12    13 2   
    26    12    14 1   
    27    14    15 1   
    28    14    37 1   
    29    15    16 1   
    30    15    19 2   
    31    16    17 1   
    32    17    18 2   
    33    17    38 1   
    34    18    19 1   
    35    18    25 1   
    36    19    20 1   
    37    20    21 1   
    38    20    24 2   
    39    21    22 1   
    40    21    43 1   
    41    22    23 2   
    42    23    24 1   
    43    23    39 1   
    44    25    40 1   
    45    25    41 1   
    46    25    42 1   
@<TRIPOS>SUBSTRUCTURE
     1 932         1 TEMP              0 ****  ****    0 ROOT
