@<TRIPOS>MOLECULE
933
   43    45     1     0     0
SMALL
No Charge or Current Charge


@<TRIPOS>ATOM
      1 N1          -3.3140     2.0640    -0.0890 nb         1 933      -0.640000
      2 C2          -4.0800     0.9410     0.0540 ca         1 933       0.304900
      3 C3          -3.5220    -0.3780     0.1180 ca         1 933       0.324300
      4 N4          -2.1790    -0.5890     0.0390 nb         1 933      -0.572000
      5 C5          -1.9820     1.8280    -0.1650 ca         1 933       0.303500
      6 C6          -1.4480     0.5410    -0.1020 ca         1 933       0.351800
      7 C7          -0.0230     0.6530    -0.2130 cc         1 933      -0.318000
      8 C8           0.2630     2.0150    -0.3400 cd         1 933      -0.113100
      9 N9          -0.9550     2.7420    -0.3110 na         1 933      -0.310400
     10 C10         -4.3730    -1.6160     0.2760 cx         1 933      -0.179000
     11 C11         -5.6270    -1.6360     1.1260 cx         1 933      -0.121400
     12 C12         -5.7340    -1.7540    -0.3760 cx         1 933      -0.121400
     13 C13          0.9540    -0.4540    -0.1950 c          1 933       0.643300
     14 N14          2.2570    -0.0320    -0.3210 ns         1 933      -0.511900
     15 O15          0.6640    -1.6350    -0.0780 o          1 933      -0.578100
     16 C16          3.4330    -0.9080    -0.3270 c3         1 933       0.118700
     17 C17          4.6550    -0.2430     0.4100 c3         1 933      -0.057000
     18 C18          4.2420     0.1390     1.8610 c3         1 933      -0.082767
     19 C19          5.8430    -1.2430     0.5040 c3         1 933      -0.082767
     20 C20          5.1390     1.0430    -0.3210 c3         1 933      -0.082767
     21 C21          3.7020    -1.3840    -1.7760 c3         1 933      -0.106100
     22 H1          -5.1560     1.1000     0.1180 h4         1 933       0.029100
     23 H2           1.2190     2.5260    -0.4480 h4         1 933       0.219000
     24 H3          -1.0680     3.7470    -0.3810 hn         1 933       0.367000
     25 H4          -3.7680    -2.5210     0.3040 hc         1 933       0.107700
     26 H5          -5.8220    -2.5270     1.7190 hc         1 933       0.073950
     27 H6          -5.9580    -0.7080     1.5870 hc         1 933       0.073950
     28 H7          -6.1370    -0.9060    -0.9240 hc         1 933       0.073950
     29 H8          -6.0010    -2.7250    -0.7890 hc         1 933       0.073950
     30 H9           2.4030     0.9620    -0.4120 hn         1 933       0.302500
     31 H10          3.1740    -1.8060     0.2520 h1         1 933       0.083700
     32 H11          3.8660    -0.7370     2.4040 hc         1 933       0.034256
     33 H12          5.0960     0.5400     2.4200 hc         1 933       0.034256
     34 H13          3.4570     0.9050     1.8690 hc         1 933       0.034256
     35 H14          6.2610    -1.4670    -0.4840 hc         1 933       0.034256
     36 H15          6.6550    -0.8290     1.1130 hc         1 933       0.034256
     37 H16          5.5250    -2.1870     0.9630 hc         1 933       0.034256
     38 H17          4.3350     1.7820    -0.4080 hc         1 933       0.034256
     39 H18          5.9630     1.5130     0.2300 hc         1 933       0.034256
     40 H19          5.5060     0.8170    -1.3290 hc         1 933       0.034256
     41 H20          3.9580    -0.5450    -2.4320 hc         1 933       0.040033
     42 H21          4.5140    -2.1190    -1.8140 hc         1 933       0.040033
     43 H22          2.8080    -1.8680    -2.1880 hc         1 933       0.040033
@<TRIPOS>BOND
     1     1     2 ar  
     2     1     5 ar  
     3     2     3 ar  
     4     2    22 1   
     5     3     4 ar  
     6     3    10 1   
     7     4     6 ar  
     8     5     6 ar  
     9     5     9 1   
    10     6     7 1   
    11     7     8 2   
    12     7    13 1   
    13     8     9 1   
    14     8    23 1   
    15     9    24 1   
    16    10    11 1   
    17    10    12 1   
    18    10    25 1   
    19    11    12 1   
    20    11    26 1   
    21    11    27 1   
    22    12    28 1   
    23    12    29 1   
    24    13    14 1   
    25    13    15 2   
    26    14    16 1   
    27    14    30 1   
    28    16    17 1   
    29    16    21 1   
    30    16    31 1   
    31    17    18 1   
    32    17    19 1   
    33    17    20 1   
    34    18    32 1   
    35    18    33 1   
    36    18    34 1   
    37    19    35 1   
    38    19    36 1   
    39    19    37 1   
    40    20    38 1   
    41    20    39 1   
    42    20    40 1   
    43    21    41 1   
    44    21    42 1   
    45    21    43 1   
@<TRIPOS>SUBSTRUCTURE
     1 933         1 TEMP              0 ****  ****    0 ROOT
