@<TRIPOS>MOLECULE
933
   43    45     1     0     0
SMALL
abcg2


@<TRIPOS>ATOM
      1 N1          -3.2670     1.9850    -0.1610 nb         1 933      -0.640000
      2 C2          -3.9950     0.8980     0.0260 ca         1 933       0.304900
      3 C3          -3.4370    -0.3890     0.1900 ca         1 933       0.324300
      4 N4          -2.1260    -0.5830     0.1670 nb         1 933      -0.572000
      5 C5          -1.9680     1.7680    -0.1790 ca         1 933       0.303500
      6 C6          -1.3750     0.5000    -0.0140 ca         1 933       0.351800
      7 C7           0.0400     0.6890    -0.1160 cc         1 933      -0.318000
      8 C8           0.2210     2.0380    -0.3160 cd         1 933      -0.113100
      9 N9          -0.9720     2.6790    -0.3540 na         1 933      -0.310400
     10 C10         -4.2840    -1.5850     0.3920 cx         1 933      -0.179000
     11 C11         -5.5860    -1.5100     1.1440 cx         1 933      -0.121400
     12 C12         -5.5980    -1.7430    -0.3270 cx         1 933      -0.121400
     13 C13          1.0760    -0.3460     0.0360 c          1 933       0.643300
     14 N14          2.2580    -0.0700    -0.5520 ns         1 933      -0.511900
     15 O15          0.8550    -1.3720     0.6670 o          1 933      -0.578100
     16 C16          3.4330    -0.9200    -0.4800 c3         1 933       0.118700
     17 C17          4.5450    -0.2770     0.3870 c3         1 933      -0.057000
     18 C18          4.0060    -0.0390     1.7990 c3         1 933      -0.082767
     19 C19          5.7300    -1.2420     0.4790 c3         1 933      -0.082767
     20 C20          5.0210     1.0560    -0.1930 c3         1 933      -0.082767
     21 C21          3.8640    -1.2940    -1.8960 c3         1 933      -0.106100
     22 H1          -5.0700     1.0370     0.0480 h4         1 933       0.029100
     23 H2           1.1360     2.6020    -0.4150 h4         1 933       0.219000
     24 H3          -1.0950     3.6740    -0.4660 hn         1 933       0.367000
     25 H4          -3.7030    -2.4890     0.5300 hc         1 933       0.107700
     26 H5          -5.8240    -2.3350     1.8010 hc         1 933       0.073950
     27 H6          -5.9030    -0.5420     1.5130 hc         1 933       0.073950
     28 H7          -5.9210    -0.9370    -0.9740 hc         1 933       0.073950
     29 H8          -5.8460    -2.7310    -0.6920 hc         1 933       0.073950
     30 H9           2.3000     0.7170    -1.1800 hn         1 933       0.302500
     31 H10          3.1230    -1.8340     0.0300 h1         1 933       0.083700
     32 H11          3.6480    -0.9660     2.2510 hc         1 933       0.034256
     33 H12          4.7940     0.3620     2.4410 hc         1 933       0.034256
     34 H13          3.1830     0.6770     1.8070 hc         1 933       0.034256
     35 H14          6.2420    -1.3630    -0.4760 hc         1 933       0.034256
     36 H15          6.4670    -0.8690     1.1940 hc         1 933       0.034256
     37 H16          5.4120    -2.2310     0.8180 hc         1 933       0.034256
     38 H17          4.2210     1.7980    -0.2260 hc         1 933       0.034256
     39 H18          5.8160     1.4700     0.4290 hc         1 933       0.034256
     40 H19          5.4230     0.9490    -1.2030 hc         1 933       0.034256
     41 H20          4.1900    -0.4260    -2.4700 hc         1 933       0.040033
     42 H21          4.6810    -2.0130    -1.8880 hc         1 933       0.040033
     43 H22          3.0300    -1.7510    -2.4300 hc         1 933       0.040033
@<TRIPOS>BOND
     1     1     2 ar  
     2     1     5 ar  
     3     2     3 ar  
     4     2    22 1   
     5     3     4 ar  
     6     3    10 1   
     7     4     6 ar  
     8     5     6 ar  
     9     5     9 1   
    10     6     7 1   
    11     7     8 2   
    12     7    13 1   
    13     8     9 1   
    14     8    23 1   
    15     9    24 1   
    16    10    11 1   
    17    10    12 1   
    18    10    25 1   
    19    11    12 1   
    20    11    26 1   
    21    11    27 1   
    22    12    28 1   
    23    12    29 1   
    24    13    14 1   
    25    13    15 2   
    26    14    16 1   
    27    14    30 1   
    28    16    17 1   
    29    16    21 1   
    30    16    31 1   
    31    17    18 1   
    32    17    19 1   
    33    17    20 1   
    34    18    32 1   
    35    18    33 1   
    36    18    34 1   
    37    19    35 1   
    38    19    36 1   
    39    19    37 1   
    40    20    38 1   
    41    20    39 1   
    42    20    40 1   
    43    21    41 1   
    44    21    42 1   
    45    21    43 1   
@<TRIPOS>SUBSTRUCTURE
     1 933         1 TEMP              0 ****  ****    0 ROOT
