@<TRIPOS>MOLECULE
934
   50    53     1     0     0
SMALL
abcg2


@<TRIPOS>ATOM
      1 C24         -1.0340    14.3450    -4.8630 ca         1 934       0.324000
      2 C01         -4.3830    20.5240    -6.8490 c3         1 934      -0.177100
      3 O06         -5.7440    19.3810    -5.2620 o          1 934      -0.600100
      4 N07         -4.3680    18.0990    -6.5100 n          1 934      -0.416800
      5 C08         -4.7380    16.8690    -5.8330 c6         1 934       0.100000
      6 C11         -3.5410    16.2800    -5.0960 c6         1 934      -0.119400
      7 C14         -2.3550    16.0770    -6.0420 c6         1 934       0.224500
      8 C16         -2.0430    17.3740    -6.7810 c6         1 934      -0.119400
      9 C19         -3.2900    17.9220    -7.4640 c6         1 934       0.100000
     10 N22         -1.1640    15.6070    -5.3730 nu         1 934      -0.939200
     11 C25         -1.8530    13.2750    -5.1790 ca         1 934      -0.183000
     12 C27         -1.6250    11.9870    -4.6570 ca         1 934      -0.079000
     13 C29         -0.5860    11.7400    -3.8000 ca         1 934      -0.115000
     14 C31          0.2590    12.8120    -3.4500 ca         1 934      -0.152000
     15 C32          1.3610    12.6910    -2.5700 ca         1 934       0.165900
     16 N34          2.1360    13.6810    -2.2470 nb         1 934      -0.220000
     17 C35          1.8460    14.8890    -2.8050 ca         1 934       0.380900
     18 N36          2.6860    15.8830    -2.4300 nu         1 934      -0.898900
     19 C38          2.6420    17.2120    -2.8210 cc         1 934       0.184000
     20 C39          3.3700    18.2540    -2.2160 cc         1 934       0.205900
     21 N41          3.1340    19.4080    -2.8130 nd         1 934      -0.507800
     22 N42          2.2720    19.1390    -3.7780 na         1 934       0.129800
     23 C43          1.8000    20.1830    -4.6550 c3         1 934       0.077900
     24 C47          1.9420    17.8310    -3.8370 cd         1 934      -0.185000
     25 N49          0.8630    15.1340    -3.6340 nb         1 934      -0.262000
     26 C50          0.0560    14.1030    -3.9660 ca         1 934       0.030000
     27 H1          -4.9050    21.3940    -6.4600 hc         1 934       0.059367
     28 H2          -3.3130    20.6700    -6.6980 hc         1 934       0.059367
     29 H3          -4.5580    20.4720    -7.9240 hc         1 934       0.059367
     30 H4          -5.5570    17.0640    -5.1470 h1         1 934       0.057200
     31 H5          -5.1000    16.1550    -6.5810 h1         1 934       0.057200
     32 H6          -3.2410    16.9520    -4.2850 hc         1 934       0.056700
     33 H7          -3.8310    15.3320    -4.6380 hc         1 934       0.056700
     34 H8          -2.6360    15.3350    -6.7980 h1         1 934       0.060700
     35 H9          -1.2680    17.1980    -7.5290 hc         1 934       0.056700
     36 H10         -1.6560    18.1210    -6.0790 hc         1 934       0.056700
     37 H11         -3.0620    18.8550    -7.9700 h1         1 934       0.057200
     38 H12         -3.6230    17.2200    -8.2360 h1         1 934       0.057200
     39 H13         -0.6620    16.3080    -4.8480 hn         1 934       0.489000
     40 H14         -2.6940    13.4140    -5.8450 ha         1 934       0.114000
     41 H15         -2.2960    11.1890    -4.9430 ha         1 934       0.113000
     42 H16         -0.4080    10.7540    -3.3910 ha         1 934       0.118000
     43 H17          1.5860    11.7230    -2.1290 h4         1 934       0.024100
     44 H18          3.3970    15.6230    -1.7650 hn         1 934       0.519000
     45 H19          4.0480    18.1890    -1.3770 h4         1 934       0.039100
     46 H20          2.5990    20.5340    -5.3060 h1         1 934       0.054700
     47 H21          0.9930    19.7900    -5.2660 h1         1 934       0.054700
     48 H22          1.4230    21.0200    -4.0710 h1         1 934       0.054700
     49 H23          1.2630    17.4530    -4.5780 h4         1 934       0.170000
     50 C05         -4.8890    19.2900    -6.1340 c          1 934       0.608100
@<TRIPOS>BOND
     1     1    10 1   
     2     1    11 ar  
     3     1    26 ar  
     4     2    27 1   
     5     2    28 1   
     6     2    29 1   
     7     2    50 1   
     8     3    50 2   
     9     4     5 1   
    10     4     9 1   
    11     4    50 1   
    12     5     6 1   
    13     5    30 1   
    14     5    31 1   
    15     6     7 1   
    16     6    32 1   
    17     6    33 1   
    18     7     8 1   
    19     7    10 1   
    20     7    34 1   
    21     8     9 1   
    22     8    35 1   
    23     8    36 1   
    24     9    37 1   
    25     9    38 1   
    26    10    39 1   
    27    11    12 ar  
    28    11    40 1   
    29    12    13 ar  
    30    12    41 1   
    31    13    14 ar  
    32    13    42 1   
    33    14    15 ar  
    34    14    26 ar  
    35    15    16 ar  
    36    15    43 1   
    37    16    17 ar  
    38    17    18 1   
    39    17    25 ar  
    40    18    19 1   
    41    18    44 1   
    42    19    20 1   
    43    19    24 2   
    44    20    21 2   
    45    20    45 1   
    46    21    22 1   
    47    22    23 1   
    48    22    24 1   
    49    23    46 1   
    50    23    47 1   
    51    23    48 1   
    52    24    49 1   
    53    25    26 ar  
@<TRIPOS>SUBSTRUCTURE
     1 934         1 TEMP              0 ****  ****    0 ROOT
