@<TRIPOS>MOLECULE
934
   50    53     1     0     0
SMALL
No Charge or Current Charge


@<TRIPOS>ATOM
      1 C24         -0.9330    14.1350    -5.2170 ca         1 934       0.324000
      2 C01         -4.2590    20.6320    -6.5800 c3         1 934      -0.177100
      3 O06         -5.0810    19.5550    -4.6150 o          1 934      -0.600100
      4 N07         -4.3100    18.1130    -6.2330 n          1 934      -0.416800
      5 C08         -4.5790    16.8810    -5.4440 c6         1 934       0.100000
      6 C11         -3.2560    16.1830    -5.0550 c6         1 934      -0.119400
      7 C14         -2.4020    15.8860    -6.3130 c6         1 934       0.224500
      8 C16         -2.1810    17.1790    -7.1320 c6         1 934      -0.119400
      9 C19         -3.5330    17.8460    -7.4740 c6         1 934       0.100000
     10 N22         -1.0970    15.3380    -5.9220 nu         1 934      -0.939200
     11 C25         -1.6760    12.9970    -5.5830 ca         1 934      -0.183000
     12 C27         -1.5210    11.7870    -4.8860 ca         1 934      -0.079000
     13 C29         -0.6170    11.7050    -3.8160 ca         1 934      -0.115000
     14 C31          0.1340    12.8350    -3.4460 ca         1 934      -0.152000
     15 C32          1.0470    12.7790    -2.3760 ca         1 934       0.165900
     16 N34          1.7700    13.8540    -2.0080 nb         1 934      -0.220000
     17 C35          1.5740    14.9760    -2.7190 ca         1 934       0.380900
     18 N36          2.3210    16.0750    -2.3110 nu         1 934      -0.898900
     19 C38          2.3680    17.3970    -2.7300 cc         1 934       0.184000
     20 C39          2.8900    18.4560    -1.9530 cc         1 934       0.205900
     21 N41          2.8710    19.6300    -2.5540 nd         1 934      -0.507800
     22 N42          2.3170    19.3130    -3.7890 na         1 934       0.129800
     23 C43          2.1100    20.3510    -4.8080 c3         1 934       0.077900
     24 C47          2.0160    17.9510    -3.9200 cd         1 934      -0.185000
     25 N49          0.7280    15.1340    -3.7550 nb         1 934      -0.262000
     26 C50         -0.0100    14.0620    -4.1390 ca         1 934       0.030000
     27 H1          -4.5690    21.5690    -6.1040 hc         1 934       0.059367
     28 H2          -3.1870    20.6430    -6.8060 hc         1 934       0.059367
     29 H3          -4.7180    20.5130    -7.5670 hc         1 934       0.059367
     30 H4          -5.1550    17.1080    -4.5360 h1         1 934       0.057200
     31 H5          -5.1910    16.1960    -6.0490 h1         1 934       0.057200
     32 H6          -2.6960    16.8260    -4.3620 hc         1 934       0.056700
     33 H7          -3.4780    15.2530    -4.5150 hc         1 934       0.056700
     34 H8          -2.9460    15.1690    -6.9480 h1         1 934       0.060700
     35 H9          -1.6370    16.9500    -8.0590 hc         1 934       0.056700
     36 H10         -1.5610    17.8880    -6.5660 hc         1 934       0.056700
     37 H11         -3.3500    18.7600    -8.0540 h1         1 934       0.057200
     38 H12         -4.1170    17.1740    -8.1200 h1         1 934       0.057200
     39 H13         -0.3960    16.0280    -5.6560 hn         1 934       0.489000
     40 H14         -2.3720    13.0430    -6.4150 ha         1 934       0.114000
     41 H15         -2.1000    10.9120    -5.1770 ha         1 934       0.113000
     42 H16         -0.5010    10.7660    -3.2790 ha         1 934       0.118000
     43 H17          1.2020    11.8660    -1.8050 h4         1 934       0.024100
     44 H18          2.8460    15.8930    -1.4530 hn         1 934       0.519000
     45 H19          3.2870    18.3940    -0.9480 h4         1 934       0.039100
     46 H20          3.0820    20.7160    -5.1610 h1         1 934       0.054700
     47 H21          1.5510    19.9340    -5.6540 h1         1 934       0.054700
     48 H22          1.5430    21.1830    -4.3750 h1         1 934       0.054700
     49 H23          1.6020    17.5140    -4.8180 h4         1 934       0.170000
     50 C05         -4.5770    19.4070    -5.7210 c          1 934       0.608100
@<TRIPOS>BOND
     1     1    10 1   
     2     1    11 ar  
     3     1    26 ar  
     4     2    27 1   
     5     2    28 1   
     6     2    29 1   
     7     2    50 1   
     8     3    50 2   
     9     4     5 1   
    10     4     9 1   
    11     4    50 1   
    12     5     6 1   
    13     5    30 1   
    14     5    31 1   
    15     6     7 1   
    16     6    32 1   
    17     6    33 1   
    18     7     8 1   
    19     7    10 1   
    20     7    34 1   
    21     8     9 1   
    22     8    35 1   
    23     8    36 1   
    24     9    37 1   
    25     9    38 1   
    26    10    39 1   
    27    11    12 ar  
    28    11    40 1   
    29    12    13 ar  
    30    12    41 1   
    31    13    14 ar  
    32    13    42 1   
    33    14    15 ar  
    34    14    26 ar  
    35    15    16 ar  
    36    15    43 1   
    37    16    17 ar  
    38    17    18 1   
    39    17    25 ar  
    40    18    19 1   
    41    18    44 1   
    42    19    20 1   
    43    19    24 2   
    44    20    21 2   
    45    20    45 1   
    46    21    22 1   
    47    22    23 1   
    48    22    24 1   
    49    23    46 1   
    50    23    47 1   
    51    23    48 1   
    52    24    49 1   
    53    25    26 ar  
@<TRIPOS>SUBSTRUCTURE
     1 934         1 TEMP              0 ****  ****    0 ROOT
