@<TRIPOS>MOLECULE
935
   54    56     1     0     0
SMALL
abcg2


@<TRIPOS>ATOM
      1 N1           5.4810     0.2640     0.0740 nb         1 935      -0.638000
      2 C2           4.6310     1.2650    -0.1140 cp         1 935       0.418500
      3 C3           5.0770     2.5570    -0.4180 ca         1 935      -0.150000
      4 C4           6.4340     2.7950    -0.5020 ca         1 935      -0.074000
      5 C5           7.3160     1.7440    -0.2940 ca         1 935      -0.151000
      6 C6           6.7870     0.4900    -0.0160 ca         1 935       0.305700
      7 C7           3.1930     0.9420    -0.0070 cp         1 935      -0.199500
      8 C8           2.7730    -0.3870    -0.0590 ca         1 935       0.018000
      9 C9           1.4350    -0.7250     0.0180 ca         1 935      -0.249300
     10 C10          0.4620     0.2800     0.1610 ca         1 935       0.211100
     11 C11          0.8750     1.6060     0.2350 ca         1 935      -0.223000
     12 C12          2.2210     1.9240     0.1500 ca         1 935      -0.026000
     13 O13         -0.8120    -0.1140     0.2190 os         1 935      -0.334100
     14 C14         -1.8430     0.8650     0.2810 c3         1 935       0.166600
     15 C15         -3.1770     0.1510     0.2240 c3         1 935      -0.084400
     16 C16         -4.3120     1.1680     0.2630 c3         1 935       0.171800
     17 N17         -5.6270     0.5610     0.3090 n3         1 935      -0.716600
     18 C18          7.7150    -0.6430     0.1860 ce         1 935       0.343200
     19 N19          7.3070    -1.8170     0.4150 n2         1 935      -0.690100
     20 C20          1.0070    -2.1580    -0.0620 c3         1 935       0.371300
     21 F21          2.0490    -2.9870    -0.1950 f          1 935      -0.112667
     22 F22          0.3440    -2.5530     1.0340 f          1 935      -0.112667
     23 F23          0.2010    -2.3890    -1.1080 f          1 935      -0.112667
     24 C24         -7.3650    -0.7220    -0.8320 c6         1 935       0.163800
     25 N25         -8.3690     0.2490    -0.4470 n3         1 935      -0.718600
     26 C26         -7.9990     0.8760     0.8050 c6         1 935       0.163800
     27 C27         -6.6370     1.5320     0.6890 c6         1 935       0.163800
     28 C28         -6.0000    -0.0690    -0.9450 c6         1 935       0.163800
     29 C29         -9.6880    -0.3350    -0.3870 c3         1 935       0.153100
     30 H3           4.3780     3.3610    -0.6010 ha         1 935       0.123000
     31 H4           6.8020     3.7840    -0.7370 ha         1 935       0.121000
     32 H5           8.3860     1.8900    -0.3540 ha         1 935       0.124000
     33 H8           3.5250    -1.1560    -0.1670 ha         1 935       0.164000
     34 H11          0.1630     2.4080     0.3610 ha         1 935       0.123000
     35 H12          2.4950     2.9680     0.2240 ha         1 935       0.113000
     36 H14         -1.7580     1.4430     1.2080 h1         1 935       0.036700
     37 H14A        -1.7470     1.5620    -0.5580 h1         1 935       0.036700
     38 H15         -3.2190    -0.4500    -0.6870 hc         1 935       0.068200
     39 H15A        -3.2740    -0.5300     1.0730 hc         1 935       0.068200
     40 H16         -4.1990     1.7800     1.1630 h1         1 935       0.028700
     41 H16A        -4.2150     1.8610    -0.5920 h1         1 935       0.028700
     42 H24         -7.3080    -1.5570    -0.1110 h1         1 935       0.038950
     43 H24A        -7.6360    -1.1520    -1.7990 h1         1 935       0.038950
     44 H26         -8.7420     1.6370     1.0580 h1         1 935       0.038950
     45 H26A        -7.9820     0.1500     1.6370 h1         1 935       0.038950
     46 H27         -6.3670     1.9670     1.6540 h1         1 935       0.038200
     47 H27A        -6.6960     2.3630    -0.0360 h1         1 935       0.038200
     48 H28         -6.0140     0.6620    -1.7740 h1         1 935       0.038200
     49 H28A        -5.2720    -0.8380    -1.2070 h1         1 935       0.038200
     50 H29         -9.7770    -1.1410     0.3600 h1         1 935       0.030700
     51 H29A       -10.4240     0.4310    -0.1370 h1         1 935       0.030700
     52 H29B        -9.9570    -0.7530    -1.3590 h1         1 935       0.030700
     53 H18          8.7720    -0.3770     0.1160 h4         1 935      -0.036200
     54 HN19         8.0990    -2.4450     0.5210 hn         1 935       0.375400
@<TRIPOS>BOND
     1     1     2 ar  
     2     1     6 ar  
     3     2     3 ar  
     4     2     7 1   
     5     3     4 ar  
     6     3    30 1   
     7     4     5 ar  
     8     4    31 1   
     9     5     6 ar  
    10     5    32 1   
    11     6    18 1   
    12     7     8 ar  
    13     7    12 ar  
    14     8     9 ar  
    15     8    33 1   
    16     9    10 ar  
    17     9    20 1   
    18    10    11 ar  
    19    10    13 1   
    20    11    12 ar  
    21    11    34 1   
    22    12    35 1   
    23    13    14 1   
    24    14    15 1   
    25    14    36 1   
    26    14    37 1   
    27    15    16 1   
    28    15    38 1   
    29    15    39 1   
    30    16    17 1   
    31    16    40 1   
    32    16    41 1   
    33    17    27 1   
    34    17    28 1   
    35    18    19 2   
    36    18    53 1   
    37    19    54 1   
    38    20    21 1   
    39    20    22 1   
    40    20    23 1   
    41    24    25 1   
    42    24    28 1   
    43    24    42 1   
    44    24    43 1   
    45    25    26 1   
    46    25    29 1   
    47    26    27 1   
    48    26    44 1   
    49    26    45 1   
    50    27    46 1   
    51    27    47 1   
    52    28    48 1   
    53    28    49 1   
    54    29    50 1   
    55    29    51 1   
    56    29    52 1   
@<TRIPOS>SUBSTRUCTURE
     1 935         1 TEMP              0 ****  ****    0 ROOT
