@<TRIPOS>MOLECULE
935
   54    56     1     0     0
SMALL
No Charge or Current Charge


@<TRIPOS>ATOM
      1 N1           5.6240     0.2450     0.2030 nb         1 935      -0.638000
      2 C2           4.7870     1.2610    -0.1060 cp         1 935       0.418500
      3 C3           5.2920     2.5430    -0.4400 ca         1 935      -0.150000
      4 C4           6.6760     2.7740    -0.4380 ca         1 935      -0.074000
      5 C5           7.5240     1.7080    -0.1030 ca         1 935      -0.151000
      6 C6           6.9710     0.4510     0.2150 ca         1 935       0.305700
      7 C7           3.3150     0.9500    -0.0900 cp         1 935      -0.199500
      8 C8           2.8440    -0.3820    -0.2470 ca         1 935       0.018000
      9 C9           1.4640    -0.6920    -0.2360 ca         1 935      -0.249300
     10 C10          0.5270     0.3480    -0.0610 ca         1 935       0.211100
     11 C11          0.9770     1.6740     0.1030 ca         1 935      -0.223000
     12 C12          2.3470     1.9690     0.0900 ca         1 935      -0.026000
     13 O13         -0.8190     0.0350    -0.0520 os         1 935      -0.334100
     14 C14         -1.8440     1.0260     0.1180 c3         1 935       0.166600
     15 C15         -3.2010     0.3020     0.0700 c3         1 935      -0.084400
     16 C16         -4.3910     1.2700     0.2350 c3         1 935       0.171800
     17 N17         -5.7140     0.6110     0.3510 n3         1 935      -0.716600
     18 C18          7.8950    -0.6960     0.5580 ce         1 935       0.343200
     19 N19          7.5450    -1.9480     0.5270 n2         1 935      -0.690100
     20 C20          0.9840    -2.1400    -0.4140 c3         1 935       0.371300
     21 F21          2.0000    -3.0200    -0.5720 f          1 935      -0.112667
     22 F22          0.2730    -2.5670     0.6540 f          1 935      -0.112667
     23 F23          0.1910    -2.2750    -1.5020 f          1 935      -0.112667
     24 C24         -7.5200    -0.8390    -0.7080 c6         1 935       0.163800
     25 N25         -8.5920     0.1320    -0.3320 n3         1 935      -0.718600
     26 C26         -8.1860     0.8910     0.8900 c6         1 935       0.163800
     27 C27         -6.7930     1.5790     0.7230 c6         1 935       0.163800
     28 C28         -6.1250    -0.1550    -0.8710 c6         1 935       0.163800
     29 C29         -9.9200    -0.5040    -0.1970 c3         1 935       0.153100
     30 H3           4.6200     3.3490    -0.7140 ha         1 935       0.123000
     31 H4           7.0800     3.7510    -0.6950 ha         1 935       0.121000
     32 H5           8.6010     1.8500    -0.0940 ha         1 935       0.124000
     33 H8           3.5710    -1.1800    -0.3880 ha         1 935       0.164000
     34 H11          0.2780     2.4920     0.2470 ha         1 935       0.123000
     35 H12          2.6540     3.0010     0.2380 ha         1 935       0.113000
     36 H14         -1.7350     1.5360     1.0850 h1         1 935       0.036700
     37 H14A        -1.7990     1.7730    -0.6850 h1         1 935       0.036700
     38 H15         -3.2790    -0.2270    -0.8860 hc         1 935       0.068200
     39 H15A        -3.2350    -0.4500     0.8670 hc         1 935       0.068200
     40 H16         -4.2090     1.8630     1.1420 h1         1 935       0.028700
     41 H16A        -4.3940     1.9730    -0.6100 h1         1 935       0.028700
     42 H24         -7.4350    -1.6230     0.0600 h1         1 935       0.038950
     43 H24A        -7.7770    -1.3420    -1.6520 h1         1 935       0.038950
     44 H26         -8.9330     1.6630     1.1240 h1         1 935       0.038950
     45 H26A        -8.1400     0.2150     1.7570 h1         1 935       0.038950
     46 H27         -6.5400     2.0850     1.6660 h1         1 935       0.038200
     47 H27A        -6.8810     2.3610    -0.0460 h1         1 935       0.038200
     48 H28         -6.1640     0.5170    -1.7420 h1         1 935       0.038200
     49 H28A        -5.3910    -0.9400    -1.1040 h1         1 935       0.038200
     50 H29         -9.9180    -1.2490     0.6110 h1         1 935       0.030700
     51 H29A       -10.6880     0.2470     0.0300 h1         1 935       0.030700
     52 H29B       -10.2050    -1.0090    -1.1290 h1         1 935       0.030700
     53 H18          8.9410    -0.4340     0.7340 h4         1 935      -0.036200
     54 HN19         8.3610    -2.5380     0.7480 hn         1 935       0.375400
@<TRIPOS>BOND
     1     1     2 ar  
     2     1     6 ar  
     3     2     3 ar  
     4     2     7 1   
     5     3     4 ar  
     6     3    30 1   
     7     4     5 ar  
     8     4    31 1   
     9     5     6 ar  
    10     5    32 1   
    11     6    18 1   
    12     7     8 ar  
    13     7    12 ar  
    14     8     9 ar  
    15     8    33 1   
    16     9    10 ar  
    17     9    20 1   
    18    10    11 ar  
    19    10    13 1   
    20    11    12 ar  
    21    11    34 1   
    22    12    35 1   
    23    13    14 1   
    24    14    15 1   
    25    14    36 1   
    26    14    37 1   
    27    15    16 1   
    28    15    38 1   
    29    15    39 1   
    30    16    17 1   
    31    16    40 1   
    32    16    41 1   
    33    17    27 1   
    34    17    28 1   
    35    18    19 2   
    36    18    53 1   
    37    19    54 1   
    38    20    21 1   
    39    20    22 1   
    40    20    23 1   
    41    24    25 1   
    42    24    28 1   
    43    24    42 1   
    44    24    43 1   
    45    25    26 1   
    46    25    29 1   
    47    26    27 1   
    48    26    44 1   
    49    26    45 1   
    50    27    46 1   
    51    27    47 1   
    52    28    48 1   
    53    28    49 1   
    54    29    50 1   
    55    29    51 1   
    56    29    52 1   
@<TRIPOS>SUBSTRUCTURE
     1 935         1 TEMP              0 ****  ****    0 ROOT
