@<TRIPOS>MOLECULE
936
   42    44     1     0     0
SMALL
bcc


@<TRIPOS>ATOM
      1 C1           4.4300     1.1480     0.3900 cc         1 936      -0.358200
      2 C2           4.4980    -0.3170     0.3930 c          1 936       0.623900
      3 C3           3.2480    -0.9960     0.0690 cc         1 936      -0.157900
      4 C4           2.0770    -0.3320    -0.2290 cd         1 936      -0.183600
      5 C5           2.0040     1.1140    -0.2340 c          1 936       0.609900
      6 C6           3.2970     1.8210     0.1060 cd         1 936       0.096900
      7 N7           3.0130    -2.3300    -0.0100 na         1 936       0.014900
      8 C8           1.7060    -2.5370    -0.3510 cc         1 936      -0.073600
      9 C9           1.0920    -1.3070    -0.5020 cd         1 936      -0.115300
     10 O10          1.0080     1.7540    -0.4880 o          1 936      -0.471100
     11 O11          5.5370    -0.9050     0.6470 o          1 936      -0.535100
     12 C12          3.9890    -3.3780     0.2250 c3         1 936       0.019600
     13 C19         -0.3240    -1.0610    -0.8720 c3         1 936       0.216700
     14 O20         -1.0150    -0.6260     0.3010 os         1 936      -0.301900
     15 C24         -2.2860    -0.2440     0.1970 ca         1 936       0.205100
     16 C25         -2.8860     0.2300     1.3710 ca         1 936      -0.213000
     17 C26         -4.1980     0.6430     1.3680 ca         1 936      -0.019500
     18 C27         -4.9300     0.5860     0.1840 ca         1 936      -0.232200
     19 C28         -4.3510     0.1170    -0.9860 ca         1 936      -0.019500
     20 C29         -3.0320    -0.2980    -0.9830 ca         1 936      -0.213000
     21 N34         -6.3060     1.0180     0.1740 no         1 936       0.322200
     22 O35         -6.7770     1.4560     1.2010 o          1 936      -0.219000
     23 O36         -6.9300     0.9240    -0.8600 o          1 936      -0.219000
     24 C37          1.1330    -3.8980    -0.5160 c3         1 936      -0.036800
     25 O44          3.1490     3.1320     0.0810 os         1 936      -0.274900
     26 C45          4.2800     3.9430     0.3640 c3         1 936       0.113700
     27 H11          5.3530     1.6580     0.6310 ha         1 936       0.159000
     28 H121         4.3830    -3.3130     1.2360 h1         1 936       0.067033
     29 H122         3.5130    -4.3450     0.1010 h1         1 936       0.067033
     30 H123         4.8090    -3.3020    -0.4830 h1         1 936       0.067033
     31 H191        -0.3920    -0.2950    -1.6490 h1         1 936       0.051700
     32 H192        -0.7880    -1.9700    -1.2630 h1         1 936       0.051700
     33 H251        -2.3080     0.2690     2.2850 ha         1 936       0.152500
     34 H261        -4.6420     1.0060     2.2830 ha         1 936       0.167000
     35 H281        -4.9150     0.0700    -1.9060 ha         1 936       0.167000
     36 H291        -2.6080    -0.6600    -1.9080 ha         1 936       0.152500
     37 H371         1.2300    -4.4950     0.3910 hc         1 936       0.054700
     38 H372         0.0730    -3.8350    -0.7500 hc         1 936       0.054700
     39 H373         1.6130    -4.4460    -1.3280 hc         1 936       0.054700
     40 H451         3.9460     4.9730     0.2880 h1         1 936       0.051700
     41 H452         4.6580     3.7580     1.3720 h1         1 936       0.051700
     42 H453         5.0810     3.7670    -0.3570 h1         1 936       0.051700
@<TRIPOS>BOND
     1     1     2 1   
     2     1     6 2   
     3     1    27 1   
     4     2     3 1   
     5     2    11 2   
     6     3     4 2   
     7     3     7 1   
     8     4     5 1   
     9     4     9 1   
    10     5     6 1   
    11     5    10 2   
    12     6    25 1   
    13     7     8 1   
    14     7    12 1   
    15     8     9 2   
    16     8    24 1   
    17     9    13 1   
    18    12    28 1   
    19    12    29 1   
    20    12    30 1   
    21    13    14 1   
    22    13    31 1   
    23    13    32 1   
    24    14    15 1   
    25    15    16 ar  
    26    15    20 ar  
    27    16    17 ar  
    28    16    33 1   
    29    17    18 ar  
    30    17    34 1   
    31    18    19 ar  
    32    18    21 1   
    33    19    20 ar  
    34    19    35 1   
    35    20    36 1   
    36    21    22 1   
    37    21    23 1   
    38    24    37 1   
    39    24    38 1   
    40    24    39 1   
    41    25    26 1   
    42    26    40 1   
    43    26    41 1   
    44    26    42 1   
@<TRIPOS>SUBSTRUCTURE
     1 936         1 TEMP              0 ****  ****    0 ROOT
