@<TRIPOS>MOLECULE
936
   42    44     1     0     0
SMALL
No Charge or Current Charge


@<TRIPOS>ATOM
      1 C1           4.5680     1.1790     0.3570 cc         1 936      -0.408200
      2 C2           4.5920    -0.2870     0.4300 c          1 936       0.623900
      3 C3           3.3190    -0.9650     0.0830 cc         1 936      -0.208600
      4 C4           2.1760    -0.2870    -0.2740 cd         1 936      -0.183600
      5 C5           2.1280     1.2070    -0.3470 c          1 936       0.609900
      6 C6           3.4250     1.8870    -0.0020 cd         1 936       0.096900
      7 N7           3.0000    -2.3250     0.0450 na         1 936       0.087000
      8 C8           1.6530    -2.4890    -0.3070 cc         1 936      -0.124300
      9 C9           1.1430    -1.2310    -0.5270 cd         1 936      -0.115300
     10 O10          1.1160     1.8250    -0.6630 o          1 936      -0.471100
     11 O11          5.6050    -0.8880     0.7570 o          1 936      -0.535100
     12 C12          3.9430    -3.4190     0.3380 c3         1 936       0.048900
     13 C19         -0.2760    -0.9050    -0.9450 c3         1 936       0.239900
     14 O20         -1.0410    -0.6200     0.2380 os         1 936      -0.325100
     15 C24         -2.3760    -0.2800     0.1840 ca         1 936       0.205100
     16 C25         -3.0310    -0.0170     1.3950 ca         1 936      -0.195000
     17 C26         -4.3910     0.3340     1.4130 ca         1 936      -0.001500
     18 C27         -5.1160     0.4260     0.2030 ca         1 936      -0.232200
     19 C28         -4.4540     0.1600    -1.0190 ca         1 936      -0.001500
     20 C29         -3.0920    -0.1910    -1.0270 ca         1 936      -0.195000
     21 N34         -6.5650     0.7990     0.2140 no         1 936       0.702200
     22 O35         -7.1040     1.0230     1.3060 o          1 936      -0.409000
     23 O36         -7.1610     0.8670    -0.8700 o          1 936      -0.409000
     24 C37          0.9510    -3.8230    -0.4090 c3         1 936      -0.036800
     25 O44          3.4580     3.2690    -0.0510 os         1 936      -0.298100
     26 C45          4.6440     4.0250     0.2590 c3         1 936       0.136900
     27 H11          5.5120     1.6410     0.6110 ha         1 936       0.209000
     28 H121         4.1510    -3.4420     1.4140 h1         1 936       0.067033
     29 H122         3.5260    -4.3830     0.0280 h1         1 936       0.067033
     30 H123         4.8780    -3.2520    -0.2100 h1         1 936       0.067033
     31 H191        -0.2730    -0.0480    -1.6280 h1         1 936       0.051700
     32 H192        -0.7030    -1.7580    -1.4860 h1         1 936       0.051700
     33 H251        -2.4790    -0.0860     2.3290 ha         1 936       0.134500
     34 H261        -4.8720     0.5320     2.3700 ha         1 936       0.149000
     35 H281        -4.9860     0.2230    -1.9670 ha         1 936       0.149000
     36 H291        -2.6150    -0.3880    -1.9820 ha         1 936       0.134500
     37 H371         1.1950    -4.4650     0.4460 hc         1 936       0.054700
     38 H372        -0.1390    -3.7080    -0.4220 hc         1 936       0.054700
     39 H373         1.2450    -4.3500    -1.3250 hc         1 936       0.054700
     40 H451         4.4450     5.0990     0.1560 h1         1 936       0.051700
     41 H452         4.9690     3.8400     1.2900 h1         1 936       0.051700
     42 H453         5.4630     3.7670    -0.4240 h1         1 936       0.051700
@<TRIPOS>BOND
     1     1     2 1   
     2     1     6 2   
     3     1    27 1   
     4     2     3 1   
     5     2    11 2   
     6     3     4 2   
     7     3     7 1   
     8     4     5 1   
     9     4     9 1   
    10     5     6 1   
    11     5    10 2   
    12     6    25 1   
    13     7     8 1   
    14     7    12 1   
    15     8     9 2   
    16     8    24 1   
    17     9    13 1   
    18    12    28 1   
    19    12    29 1   
    20    12    30 1   
    21    13    14 1   
    22    13    31 1   
    23    13    32 1   
    24    14    15 1   
    25    15    16 ar  
    26    15    20 ar  
    27    16    17 ar  
    28    16    33 1   
    29    17    18 ar  
    30    17    34 1   
    31    18    19 ar  
    32    18    21 1   
    33    19    20 ar  
    34    19    35 1   
    35    20    36 1   
    36    21    22 1   
    37    21    23 1   
    38    24    37 1   
    39    24    38 1   
    40    24    39 1   
    41    25    26 1   
    42    26    40 1   
    43    26    41 1   
    44    26    42 1   
@<TRIPOS>SUBSTRUCTURE
     1 936         1 TEMP              0 ****  ****    0 ROOT
