@<TRIPOS>MOLECULE
937
   65    69     1     0     0
SMALL
bcc


@<TRIPOS>ATOM
      1 N1           0.1360     1.3360     0.6690 nb         1 937      -0.751000
      2 C2           0.4400     0.0930     0.3240 ca         1 937       0.916900
      3 N3           1.6700    -0.3700     0.0930 nb         1 937      -0.774000
      4 C4           1.1510     2.1860     0.7740 ca         1 937       0.476200
      5 C5           2.4680     1.8390     0.5500 ca         1 937      -0.345900
      6 C6           2.6630     0.4930     0.2090 ca         1 937       0.571800
      7 C7           4.9110     2.1680     1.1040 c6         1 937       0.000900
      8 C8           3.6180     2.8060     0.5900 c6         1 937      -0.013100
      9 C9           5.1100     0.8460     0.4390 cc         1 937      -0.162600
     10 C10          4.0410     0.0790     0.0240 cd         1 937      -0.201800
     11 N11          4.5420    -1.0740    -0.4850 na         1 937       0.165400
     12 N12          5.8550    -1.0850    -0.4390 nd         1 937      -0.509800
     13 C13          6.2270     0.0570     0.1300 cc         1 937       0.255800
     14 N14         -0.5440    -0.8430     0.2000 nu         1 937      -0.740300
     15 C15          7.6540     0.3660     0.3710 c          1 937       0.607600
     16 O16          7.9820     1.3950     0.9480 o          1 937      -0.610100
     17 C17         -1.9150    -0.6960     0.3780 ca         1 937       0.222600
     18 C18         -2.6040     0.4570     0.0280 ca         1 937      -0.189000
     19 C19         -3.9930     0.5620     0.1790 ca         1 937       0.198600
     20 C20         -4.6940    -0.5530     0.6550 ca         1 937      -0.211000
     21 C21         -4.0180    -1.7200     0.9750 ca         1 937      -0.063000
     22 C22         -2.6470    -1.7860     0.8630 ca         1 937      -0.003900
     23 O23         -1.9690    -2.9650     1.1690 os         1 937      -0.377900
     24 C24         -1.6570    -3.1790     2.4550 c3         1 937       0.848700
     25 F25         -2.7330    -3.3890     3.2160 f          1 937      -0.230633
     26 F26         -0.8960    -4.2620     2.5090 f          1 937      -0.230633
     27 F27         -0.9900    -2.1640     3.0030 f          1 937      -0.230633
     28 N28          8.5240    -0.5460    -0.0790 nt         1 937      -0.662000
     29 C29          3.8390    -2.1670    -1.1270 c3         1 937       0.050300
     30 C30          3.4050    -1.7850    -2.5350 c3         1 937       0.121400
     31 O31          2.7860    -2.9160    -3.0950 oh         1 937      -0.594800
     32 N32         -4.6340     1.7380    -0.1950 nh         1 937      -0.648000
     33 C33         -6.0830     1.7660    -0.1510 c6         1 937       0.195800
     34 C34         -6.6190     2.9580    -0.9210 c6         1 937       0.157300
     35 N35         -6.0640     4.1970    -0.4220 n3         1 937      -0.714600
     36 C36         -4.6220     4.1630    -0.5270 c6         1 937       0.157300
     37 C37         -4.0550     2.9970     0.2580 c6         1 937       0.195800
     38 C38         -6.6280     5.3450    -1.0940 c3         1 937       0.152100
     39 H4           0.8940     3.2040     1.0540 h4         1 937       0.025100
     40 H14         -0.1980    -1.7750     0.0360 hn         1 937       0.470800
     41 H81C         3.7930     3.1820    -0.4240 hc         1 937       0.054200
     42 H82C         3.3550     3.6710     1.2000 hc         1 937       0.054200
     43 H71C         5.7520     2.8330     0.9210 hc         1 937       0.072700
     44 H72C         4.8560     2.0230     2.1870 hc         1 937       0.072700
     45 H291         4.5290    -3.0080    -1.1550 h1         1 937       0.091700
     46 H292         2.9760    -2.4390    -0.5230 h1         1 937       0.091700
     47 H281         8.2170    -1.3810    -0.5490 hn         1 937       0.323000
     48 H282         9.5130    -0.4140     0.0540 hn         1 937       0.323000
     49 H18         -2.0450     1.2770    -0.3930 ha         1 937       0.162000
     50 H20         -5.7640    -0.5290     0.7940 ha         1 937       0.141000
     51 H21         -4.5750    -2.5780     1.3280 ha         1 937       0.151000
     52 H301         2.7230    -0.9290    -2.4860 h1         1 937       0.032700
     53 H302         4.2870    -1.4700    -3.1070 h1         1 937       0.032700
     54 H31          2.4670    -2.6820    -3.9710 ho         1 937       0.413000
     55 H331        -6.4800     0.8630    -0.6160 h1         1 937       0.049200
     56 H332        -6.4540     1.7970     0.8840 h1         1 937       0.049200
     57 H371        -4.2530     3.1460     1.3290 h1         1 937       0.049200
     58 H372        -2.9750     2.9900     0.1270 h1         1 937       0.049200
     59 H341        -6.4060     2.8190    -1.9950 h1         1 937       0.040950
     60 H342        -7.7060     2.9790    -0.8110 h1         1 937       0.040950
     61 H361        -4.2880     4.0880    -1.5780 h1         1 937       0.040950
     62 H362        -4.2070     5.0890    -0.1230 h1         1 937       0.040950
     63 H381        -7.7100     5.3660    -0.9510 h1         1 937       0.032700
     64 H382        -6.2160     6.2630    -0.6730 h1         1 937       0.032700
     65 H383        -6.4340     5.3540    -2.1780 h1         1 937       0.032700
@<TRIPOS>BOND
     1     1     2 ar  
     2     1     4 ar  
     3     2     3 ar  
     4     2    14 1   
     5     3     6 ar  
     6     4     5 ar  
     7     4    39 1   
     8     5     6 ar  
     9     5     8 1   
    10     6    10 1   
    11     7     8 1   
    12     7     9 1   
    13     7    43 1   
    14     7    44 1   
    15     8    41 1   
    16     8    42 1   
    17     9    10 2   
    18     9    13 1   
    19    10    11 1   
    20    11    12 1   
    21    11    29 1   
    22    12    13 2   
    23    13    15 1   
    24    14    17 1   
    25    14    40 1   
    26    15    16 2   
    27    15    28 1   
    28    17    18 ar  
    29    17    22 ar  
    30    18    19 ar  
    31    18    49 1   
    32    19    20 ar  
    33    19    32 1   
    34    20    21 ar  
    35    20    50 1   
    36    21    22 ar  
    37    21    51 1   
    38    22    23 1   
    39    23    24 1   
    40    24    25 1   
    41    24    26 1   
    42    24    27 1   
    43    28    47 1   
    44    28    48 1   
    45    29    30 1   
    46    29    45 1   
    47    29    46 1   
    48    30    31 1   
    49    30    52 1   
    50    30    53 1   
    51    31    54 1   
    52    32    33 1   
    53    32    37 1   
    54    33    34 1   
    55    33    55 1   
    56    33    56 1   
    57    34    35 1   
    58    34    59 1   
    59    34    60 1   
    60    35    36 1   
    61    35    38 1   
    62    36    37 1   
    63    36    61 1   
    64    36    62 1   
    65    37    57 1   
    66    37    58 1   
    67    38    63 1   
    68    38    64 1   
    69    38    65 1   
@<TRIPOS>SUBSTRUCTURE
     1 937         1 TEMP              0 ****  ****    0 ROOT
