@<TRIPOS>MOLECULE
937
   65    69     1     0     0
SMALL
No Charge or Current Charge


@<TRIPOS>ATOM
      1 N1           0.3040     1.6530     0.6370 nb         1 937      -0.225000
      2 C2           0.5760     0.3520     0.4220 ca         1 937       0.390900
      3 N3           1.7850    -0.1860     0.1980 nb         1 937      -0.248000
      4 C4           1.3480     2.5040     0.6010 ca         1 937       0.147900
      5 C5           2.6570     2.0490     0.3670 ca         1 937      -0.215300
      6 C6           2.8270     0.6660     0.1630 ca         1 937       0.243500
      7 C7           5.2420     2.3950     0.5450 c6         1 937       0.000900
      8 C8           3.8440     3.0240     0.2560 c6         1 937      -0.013100
      9 C9           5.2880     0.9420     0.1190 cc         1 937      -0.097300
     10 C10          4.1880     0.1680    -0.0440 cd         1 937      -0.252500
     11 N11          4.6800    -1.1050    -0.3660 na         1 937       0.186800
     12 N12          6.0700    -1.1280    -0.4110 nd         1 937      -0.509800
     13 C13          6.4180     0.1180    -0.1010 cc         1 937       0.190500
     14 N14         -0.4590    -0.5710     0.4770 nu         1 937      -0.933900
     15 C15          7.8460     0.5940     0.0230 c          1 937       0.540600
     16 O16          8.2060     1.7220     0.3270 o          1 937      -0.610100
     17 C17         -1.8530    -0.5150     0.6230 ca         1 937       0.361000
     18 C18         -2.5960     0.6280     0.2870 ca         1 937      -0.171000
     19 C19         -3.9890     0.6500     0.4370 ca         1 937       0.337000
     20 C20         -4.6440    -0.4970     0.9170 ca         1 937      -0.193000
     21 C21         -3.9200    -1.6570     1.2370 ca         1 937      -0.045000
     22 C22         -2.5150    -1.6790     1.0880 ca         1 937      -0.003900
     23 O23         -1.7440    -2.8040     1.3790 os         1 937      -0.401100
     24 C24         -2.2760    -4.0550     1.8650 c3         1 937       0.508000
     25 F25         -3.1470    -4.6120     0.9920 f          1 937      -0.109333
     26 F26         -1.2830    -4.9520     2.0550 f          1 937      -0.109333
     27 F27         -2.9080    -3.9120     3.0530 f          1 937      -0.109333
     28 N28          8.7940    -0.3430    -0.2280 nt         1 937      -0.595000
     29 C29          3.9130    -2.3270    -0.6640 c3         1 937       0.079600
     30 C30          3.3000    -2.3190    -2.0780 c3         1 937       0.144600
     31 O31          2.5750    -3.5370    -2.3120 oh         1 937      -0.657000
     32 N32         -4.7090     1.8180     0.0960 nh         1 937      -0.786400
     33 C33         -6.1420     1.7520    -0.3400 c6         1 937       0.195800
     34 C34         -6.5730     3.0050    -1.1690 c6         1 937       0.157300
     35 N35         -6.2750     4.2940    -0.4720 n3         1 937      -0.714600
     36 C36         -4.8230     4.3530    -0.1190 c6         1 937       0.157300
     37 C37         -4.3560     3.1280     0.7320 c6         1 937       0.195800
     38 C38         -6.7240     5.4750    -1.2390 c3         1 937       0.152100
     39 H4           1.1280     3.5590     0.7530 h4         1 937       0.025100
     40 H14         -0.1240    -1.5300     0.5670 hn         1 937       0.526000
     41 H81C         3.8510     3.4290    -0.7660 hc         1 937       0.054200
     42 H82C         3.6900     3.8890     0.9160 hc         1 937       0.054200
     43 H71C         6.0080     2.9950     0.0370 hc         1 937       0.072700
     44 H72C         5.4540     2.4690     1.6200 hc         1 937       0.072700
     45 H291         4.5840    -3.1890    -0.5710 h1         1 937       0.091700
     46 H292         3.1230    -2.4420     0.0850 h1         1 937       0.091700
     47 H281         8.5090    -1.2790    -0.4780 hn         1 937       0.323000
     48 H282         9.7700    -0.0970    -0.1630 hn         1 937       0.323000
     49 H18         -2.1050     1.4990    -0.1230 ha         1 937       0.144000
     50 H20         -5.7220    -0.4990     1.0500 ha         1 937       0.123000
     51 H21         -4.4700    -2.5210     1.5980 ha         1 937       0.133000
     52 H301         2.6320    -1.4530    -2.1800 h1         1 937       0.032700
     53 H302         4.1060    -2.2080    -2.8160 h1         1 937       0.032700
     54 H31          2.2080    -3.4850    -3.2240 ho         1 937       0.452000
     55 H331        -6.3120     0.8570    -0.9570 h1         1 937       0.049200
     56 H332        -6.7950     1.6730     0.5410 h1         1 937       0.049200
     57 H371        -4.8260     3.1920     1.7250 h1         1 937       0.049200
     58 H372        -3.2700     3.2100     0.8850 h1         1 937       0.049200
     59 H341        -6.0540     2.9740    -2.1390 h1         1 937       0.040950
     60 H342        -7.6500     2.9280    -1.3820 h1         1 937       0.040950
     61 H361        -4.2150     4.3900    -1.0350 h1         1 937       0.040950
     62 H362        -4.6060     5.2720     0.4450 h1         1 937       0.040950
     63 H381        -7.8030     5.4200    -1.4400 h1         1 937       0.032700
     64 H382        -6.5320     6.3990    -0.6770 h1         1 937       0.032700
     65 H383        -6.1980     5.5420    -2.2020 h1         1 937       0.032700
@<TRIPOS>BOND
     1     1     2 ar  
     2     1     4 ar  
     3     2     3 ar  
     4     2    14 1   
     5     3     6 ar  
     6     4     5 ar  
     7     4    39 1   
     8     5     6 ar  
     9     5     8 1   
    10     6    10 1   
    11     7     8 1   
    12     7     9 1   
    13     7    43 1   
    14     7    44 1   
    15     8    41 1   
    16     8    42 1   
    17     9    10 2   
    18     9    13 1   
    19    10    11 1   
    20    11    12 1   
    21    11    29 1   
    22    12    13 2   
    23    13    15 1   
    24    14    17 1   
    25    14    40 1   
    26    15    16 2   
    27    15    28 1   
    28    17    18 ar  
    29    17    22 ar  
    30    18    19 ar  
    31    18    49 1   
    32    19    20 ar  
    33    19    32 1   
    34    20    21 ar  
    35    20    50 1   
    36    21    22 ar  
    37    21    51 1   
    38    22    23 1   
    39    23    24 1   
    40    24    25 1   
    41    24    26 1   
    42    24    27 1   
    43    28    47 1   
    44    28    48 1   
    45    29    30 1   
    46    29    45 1   
    47    29    46 1   
    48    30    31 1   
    49    30    52 1   
    50    30    53 1   
    51    31    54 1   
    52    32    33 1   
    53    32    37 1   
    54    33    34 1   
    55    33    55 1   
    56    33    56 1   
    57    34    35 1   
    58    34    59 1   
    59    34    60 1   
    60    35    36 1   
    61    35    38 1   
    62    36    37 1   
    63    36    61 1   
    64    36    62 1   
    65    37    57 1   
    66    37    58 1   
    67    38    63 1   
    68    38    64 1   
    69    38    65 1   
@<TRIPOS>SUBSTRUCTURE
     1 937         1 TEMP              0 ****  ****    0 ROOT
