@<TRIPOS>MOLECULE
938
   12    12     1     0     0
SMALL
bcc


@<TRIPOS>ATOM
      1 C1           1.6610     0.9700     0.0170 ca         1 938       0.361200
      2 C2           1.7630    -1.2850    -0.0540 ca         1 938       0.607900
      3 C3          -0.2760    -0.3390     0.0190 ca         1 938       0.466300
      4 CL          -1.9980    -0.5280     0.0530 cl         1 938      -0.167000
      5 C            0.2610     0.9540     0.0520 ca         1 938      -0.047000
      6 N           -0.4840     2.0870     0.1600 nv         1 938      -0.815200
      7 N2           0.4460    -1.4270    -0.0330 nb         1 938      -0.661000
      8 N1           2.3980    -0.1260    -0.0310 nb         1 938      -0.661000
      9 H1           2.1830     1.9220     0.0340 h4         1 938       0.026100
     10 H2           2.3570    -2.1890    -0.0960 h5         1 938       0.059100
     11 H3          -0.0210     2.9510    -0.0730 hn         1 938       0.415800
     12 H4          -1.4370     2.0510    -0.1620 hn         1 938       0.415800
@<TRIPOS>BOND
     1     1     5 ar  
     2     1     8 ar  
     3     1     9 1   
     4     2     7 ar  
     5     2     8 ar  
     6     2    10 1   
     7     3     4 1   
     8     3     5 ar  
     9     3     7 ar  
    10     5     6 1   
    11     6    11 1   
    12     6    12 1   
@<TRIPOS>SUBSTRUCTURE
     1 938         1 TEMP              0 ****  ****    0 ROOT
