@<TRIPOS>MOLECULE
938
   12    12     1     0     0
SMALL
No Charge or Current Charge


@<TRIPOS>ATOM
      1 C1           1.6890     0.9910     0.0060 ca         1 938       0.032900
      2 C2           1.7750    -1.3050    -0.0390 ca         1 938       0.081900
      3 C3          -0.3110    -0.3470     0.0010 ca         1 938       0.138000
      4 Cl          -2.0620    -0.5710     0.0140 cl         1 938      -0.167000
      5 C            0.2770     0.9450     0.0200 ca         1 938       0.222000
      6 N           -0.4760     2.1100     0.0500 nv         1 938      -1.064000
      7 N2           0.4350    -1.4720    -0.0280 nb         1 938      -0.135000
      8 N1           2.4410    -0.1300    -0.0230 nb         1 938      -0.135000
      9 H1           2.2270     1.9370     0.0190 h4         1 938       0.026100
     10 H2           2.3800    -2.2100    -0.0620 h5         1 938       0.059100
     11 H3          -0.0280     3.0230    -0.0400 hn         1 938       0.471000
     12 H4          -1.4930     2.0700    -0.0310 hn         1 938       0.471000
@<TRIPOS>BOND
     1     1     5 ar  
     2     1     8 ar  
     3     1     9 1   
     4     2     7 ar  
     5     2     8 ar  
     6     2    10 1   
     7     3     4 1   
     8     3     5 ar  
     9     3     7 ar  
    10     5     6 1   
    11     6    11 1   
    12     6    12 1   
@<TRIPOS>SUBSTRUCTURE
     1 938         1 TEMP              0 ****  ****    0 ROOT
