@<TRIPOS>MOLECULE
939
   58    61     1     0     0
SMALL
No Charge or Current Charge


@<TRIPOS>ATOM
      1 N1           0.6350     1.6060    -0.9620 nb         1 939      -0.234000
      2 C2           0.9640     0.3800    -0.5190 ca         1 939       0.395900
      3 N3           2.2030    -0.0880    -0.3080 nb         1 939      -0.271000
      4 C4           3.2340     0.7520    -0.5370 ca         1 939       0.263500
      5 C5           2.9880     2.0610    -0.9960 ca         1 939      -0.256000
      6 C6           1.6550     2.4500    -1.1980 ca         1 939       0.145900
      7 N7          -0.0410    -0.5480    -0.2910 nu         1 939      -0.931900
      8 C8           4.6040     0.2690    -0.3080 cc         1 939      -0.274500
      9 N9           5.0800    -1.0410    -0.1560 na         1 939       0.072000
     10 C10          6.4360    -1.0030     0.1800 cc         1 939      -0.146000
     11 C11          6.7840     0.3270     0.2860 cd         1 939      -0.238600
     12 C12          5.6420     1.1070     0.0010 cd         1 939      -0.071000
     13 C13          8.1320     0.8360     0.6540 c          1 939       0.649700
     14 N14          9.0700    -0.1030     0.8890 nt         1 939      -0.610000
     15 O15          8.4090     2.0200     0.7470 o          1 939      -0.613100
     16 C16         -1.4420    -0.5450    -0.3200 ca         1 939       0.370000
     17 C17         -2.0990    -1.7920    -0.4720 ca         1 939      -0.017900
     18 C18         -3.5120    -1.8250    -0.4980 ca         1 939      -0.040000
     19 C19         -4.2460    -0.6350    -0.3630 ca         1 939      -0.202000
     20 C20         -3.5920     0.5970    -0.1930 ca         1 939       0.348000
     21 C21         -2.1930     0.6300    -0.1650 ca         1 939      -0.188000
     22 O22         -1.3170    -2.9410    -0.5900 os         1 939      -0.402100
     23 C23         -1.8440    -4.2750    -0.7580 c3         1 939       0.507000
     24 F24         -2.5770    -4.3940    -1.8890 f          1 939      -0.110333
     25 F25         -0.8400    -5.1750    -0.8450 f          1 939      -0.110333
     26 F26         -2.6200    -4.6500     0.2850 f          1 939      -0.110333
     27 C27          4.3140    -2.2810    -0.3570 c3         1 939       0.061900
     28 N28         -4.3200     1.7980    -0.0390 nh         1 939      -0.790400
     29 C29         -5.7070     1.8040     0.5300 c6         1 939       0.199800
     30 C30         -6.1100     3.1980     1.1120 c6         1 939       0.155800
     31 N31         -5.9190     4.3120     0.1340 n3         1 939      -0.713600
     32 C32         -4.5070     4.3190    -0.3560 c6         1 939       0.155800
     33 C33         -4.0710     2.9480    -0.9680 c6         1 939       0.199800
     34 C34         -6.3430     5.6230     0.6730 c3         1 939       0.151100
     35 H6           1.4000     3.4460    -1.5580 h4         1 939       0.024100
     36 H7           0.3170    -1.4990    -0.2130 hn         1 939       0.521000
     37 H5           3.7950     2.7540    -1.2080 ha         1 939       0.145000
     38 H12          5.6070     2.1930     0.0400 ha         1 939       0.153000
     39 H10          7.0150    -1.9070     0.3240 h4         1 939       0.143000
     40 H271         3.7600    -2.2220    -1.3020 h1         1 939       0.060033
     41 H272         4.9970    -3.1380    -0.3950 h1         1 939       0.060033
     42 H273         3.6120    -2.4170     0.4740 h1         1 939       0.060033
     43 H141         8.8340    -1.0790     0.8100 hn         1 939       0.310000
     44 H142        10.0030     0.1850     1.1420 hn         1 939       0.310000
     45 H21         -1.7000     1.5760     0.0090 ha         1 939       0.153000
     46 H18         -4.0600    -2.7550    -0.6210 ha         1 939       0.131000
     47 H19         -5.3300    -0.6820    -0.3960 ha         1 939       0.123000
     48 H291        -6.4300     1.5270    -0.2510 h1         1 939       0.049450
     49 H292        -5.7910     1.0580     1.3340 h1         1 939       0.049450
     50 H331        -3.0060     3.0140    -1.2340 h1         1 939       0.049450
     51 H332        -4.6260     2.7900    -1.9040 h1         1 939       0.049450
     52 H301        -7.1610     3.1490     1.4340 h1         1 939       0.041200
     53 H302        -5.5080     3.3830     2.0140 h1         1 939       0.041200
     54 H321        -4.3720     5.1000    -1.1190 h1         1 939       0.041200
     55 H322        -3.8230     4.5610     0.4720 h1         1 939       0.041200
     56 H341        -5.7390     5.9020     1.5470 h1         1 939       0.033033
     57 H342        -6.2330     6.4080    -0.0870 h1         1 939       0.033033
     58 H343        -7.3970     5.5940     0.9790 h1         1 939       0.033033
@<TRIPOS>BOND
     1     1     2 ar  
     2     1     6 ar  
     3     2     3 ar  
     4     2     7 1   
     5     3     4 ar  
     6     4     5 ar  
     7     4     8 1   
     8     5     6 ar  
     9     5    37 1   
    10     6    35 1   
    11     7    16 1   
    12     7    36 1   
    13     8     9 1   
    14     8    12 2   
    15     9    10 1   
    16     9    27 1   
    17    10    11 2   
    18    10    39 1   
    19    11    12 1   
    20    11    13 1   
    21    12    38 1   
    22    13    14 1   
    23    13    15 2   
    24    14    43 1   
    25    14    44 1   
    26    16    17 ar  
    27    16    21 ar  
    28    17    18 ar  
    29    17    22 1   
    30    18    19 ar  
    31    18    46 1   
    32    19    20 ar  
    33    19    47 1   
    34    20    21 ar  
    35    20    28 1   
    36    21    45 1   
    37    22    23 1   
    38    23    24 1   
    39    23    25 1   
    40    23    26 1   
    41    27    40 1   
    42    27    41 1   
    43    27    42 1   
    44    28    29 1   
    45    28    33 1   
    46    29    30 1   
    47    29    48 1   
    48    29    49 1   
    49    30    31 1   
    50    30    52 1   
    51    30    53 1   
    52    31    32 1   
    53    31    34 1   
    54    32    33 1   
    55    32    54 1   
    56    32    55 1   
    57    33    50 1   
    58    33    51 1   
    59    34    56 1   
    60    34    57 1   
    61    34    58 1   
@<TRIPOS>SUBSTRUCTURE
     1 939         1 TEMP              0 ****  ****    0 ROOT
