@<TRIPOS>MOLECULE
939
   58    61     1     0     0
SMALL
abcg2


@<TRIPOS>ATOM
      1 N1           0.4740     1.4500    -0.7160 nb         1 939      -0.234000
      2 C2           0.8490     0.2630    -0.2630 ca         1 939       0.395900
      3 N3           2.1060    -0.1520    -0.0900 nb         1 939      -0.271000
      4 C4           3.0820     0.6860    -0.4070 ca         1 939       0.263500
      5 C5           2.7940     1.9660    -0.9020 ca         1 939      -0.256000
      6 C6           1.4620     2.2850    -1.0280 ca         1 939       0.145900
      7 N7          -0.0870    -0.6730     0.0710 nu         1 939      -0.931900
      8 C8           4.4600     0.2650    -0.2200 cc         1 939      -0.274500
      9 N9           4.8780    -1.0340    -0.0140 na         1 939       0.072000
     10 C10          6.2140    -1.0450     0.1340 cc         1 939      -0.146000
     11 C11          6.6960     0.2490     0.0350 cd         1 939      -0.238600
     12 C12          5.5780     1.0710    -0.1920 cd         1 939      -0.071000
     13 C13          8.0800     0.7370     0.1400 c          1 939       0.649700
     14 N14          9.0390    -0.1910     0.3040 nt         1 939      -0.610000
     15 O15          8.3300     1.9370     0.0820 o          1 939      -0.613100
     16 C16         -1.4730    -0.6100     0.0400 ca         1 939       0.370000
     17 C17         -2.1870    -1.8160     0.0220 ca         1 939      -0.017900
     18 C18         -3.5630    -1.8210     0.0770 ca         1 939      -0.040000
     19 C19         -4.2730    -0.6310     0.1050 ca         1 939      -0.202000
     20 C20         -3.5950     0.5940     0.1110 ca         1 939       0.348000
     21 C21         -2.1930     0.5760     0.0950 ca         1 939      -0.188000
     22 O22         -1.4760    -3.0170     0.0200 os         1 939      -0.402100
     23 C23         -1.3120    -3.6360    -1.1580 c3         1 939       0.507000
     24 F24         -0.7350    -2.8590    -2.0760 f          1 939      -0.110333
     25 F25         -0.5370    -4.6890    -0.9530 f          1 939      -0.110333
     26 F26         -2.4620    -4.0620    -1.6820 f          1 939      -0.110333
     27 C27          4.0780    -2.2460    -0.0020 c3         1 939       0.061900
     28 N28         -4.2630     1.8080     0.1850 nh         1 939      -0.790400
     29 C29         -5.7060     1.7950     0.3200 c6         1 939       0.199800
     30 C30         -6.2130     3.1480     0.7820 c6         1 939       0.155800
     31 N31         -5.7860     4.2030    -0.1110 n3         1 939      -0.713600
     32 C32         -4.3400     4.2300    -0.1690 c6         1 939       0.155800
     33 C33         -3.7980     2.9020    -0.6570 c6         1 939       0.199800
     34 C34         -6.3320     5.4840     0.2730 c3         1 939       0.151100
     35 H6           1.1650     3.2570    -1.4050 h4         1 939       0.024100
     36 H7           0.3190    -1.5480     0.3660 hn         1 939       0.521000
     37 H5           3.5640     2.6680    -1.1820 ha         1 939       0.145000
     38 H12          5.5900     2.1430    -0.3040 ha         1 939       0.153000
     39 H10          6.7320    -1.9770     0.3000 h4         1 939       0.143000
     40 H271         3.4790    -2.3210    -0.9040 h1         1 939       0.060033
     41 H272         4.7570    -3.0940     0.0390 h1         1 939       0.060033
     42 H273         3.4180    -2.2740     0.8600 h1         1 939       0.060033
     43 H141         8.8510    -1.1780     0.2960 hn         1 939       0.310000
     44 H142        10.0040     0.0890     0.3490 hn         1 939       0.310000
     45 H21         -1.6390     1.4980     0.1440 ha         1 939       0.153000
     46 H18         -4.1010    -2.7600     0.0900 ha         1 939       0.131000
     47 H19         -5.3510    -0.6840     0.1090 ha         1 939       0.123000
     48 H291        -6.2000     1.5160    -0.6230 h1         1 939       0.049450
     49 H292        -5.9960     1.0600     1.0710 h1         1 939       0.049450
     50 H331        -2.7120     2.9580    -0.6480 h1         1 939       0.049450
     51 H332        -4.1060     2.7420    -1.7000 h1         1 939       0.049450
     52 H301        -7.3050     3.1160     0.8070 h1         1 939       0.041200
     53 H302        -5.8700     3.3260     1.8160 h1         1 939       0.041200
     54 H321        -4.0200     5.0110    -0.8620 h1         1 939       0.041200
     55 H322        -3.8970     4.4650     0.8150 h1         1 939       0.041200
     56 H341        -6.0200     5.8060     1.2790 h1         1 939       0.033033
     57 H342        -6.0160     6.2510    -0.4350 h1         1 939       0.033033
     58 H343        -7.4220     5.4440     0.2590 h1         1 939       0.033033
@<TRIPOS>BOND
     1     1     2 ar  
     2     1     6 ar  
     3     2     3 ar  
     4     2     7 1   
     5     3     4 ar  
     6     4     5 ar  
     7     4     8 1   
     8     5     6 ar  
     9     5    37 1   
    10     6    35 1   
    11     7    16 1   
    12     7    36 1   
    13     8     9 1   
    14     8    12 2   
    15     9    10 1   
    16     9    27 1   
    17    10    11 2   
    18    10    39 1   
    19    11    12 1   
    20    11    13 1   
    21    12    38 1   
    22    13    14 1   
    23    13    15 2   
    24    14    43 1   
    25    14    44 1   
    26    16    17 ar  
    27    16    21 ar  
    28    17    18 ar  
    29    17    22 1   
    30    18    19 ar  
    31    18    46 1   
    32    19    20 ar  
    33    19    47 1   
    34    20    21 ar  
    35    20    28 1   
    36    21    45 1   
    37    22    23 1   
    38    23    24 1   
    39    23    25 1   
    40    23    26 1   
    41    27    40 1   
    42    27    41 1   
    43    27    42 1   
    44    28    29 1   
    45    28    33 1   
    46    29    30 1   
    47    29    48 1   
    48    29    49 1   
    49    30    31 1   
    50    30    52 1   
    51    30    53 1   
    52    31    32 1   
    53    31    34 1   
    54    32    33 1   
    55    32    54 1   
    56    32    55 1   
    57    33    50 1   
    58    33    51 1   
    59    34    56 1   
    60    34    57 1   
    61    34    58 1   
@<TRIPOS>SUBSTRUCTURE
     1 939         1 TEMP              0 ****  ****    0 ROOT
