@<TRIPOS>MOLECULE
93B
   15    15     1     0     0
SMALL
No Charge or Current Charge


@<TRIPOS>ATOM
      1 C2           2.2320     0.0100    -0.4130 c6         1 93B      -0.113400
      2 C3           1.5450     1.2650     0.1580 c6         1 93B       0.092000
      3 N1           0.0810     1.1380     0.1060 ns         1 93B      -0.455900
      4 C           -0.6370    -0.0200     0.0220 cs         1 93B       0.488400
      5 C1           1.5650    -1.2740     0.1160 c6         1 93B       0.092000
      6 N            0.0990    -1.1680     0.0680 ns         1 93B      -0.455900
      7 H1           2.1480     0.0270    -1.5080 hc         1 93B       0.065700
      8 H2           3.3060     0.0150    -0.1800 hc         1 93B       0.065700
      9 H3           1.8380     1.4010     1.2090 h1         1 93B       0.052700
     10 H4           1.8560     2.1590    -0.4020 h1         1 93B       0.052700
     11 H5          -0.4670     1.9910     0.1020 hn         1 93B       0.354500
     12 H6           1.8900    -2.1440    -0.4720 h1         1 93B       0.052700
     13 H7           1.8610    -1.4390     1.1630 h1         1 93B       0.052700
     14 H8          -0.4350    -2.0290     0.0360 hn         1 93B       0.354500
     15 S           -2.2970    -0.0320    -0.0580 s          1 93B      -0.700400
@<TRIPOS>BOND
     1     1     2 1   
     2     1     5 1   
     3     1     7 1   
     4     1     8 1   
     5     2     3 1   
     6     2     9 1   
     7     2    10 1   
     8     3     4 1   
     9     3    11 1   
    10     4     6 1   
    11     4    15 2   
    12     5     6 1   
    13     5    12 1   
    14     5    13 1   
    15     6    14 1   
@<TRIPOS>SUBSTRUCTURE
     1 93B         1 TEMP              0 ****  ****    0 ROOT
