@<TRIPOS>MOLECULE
93B
   15    15     1     0     0
SMALL
bcc


@<TRIPOS>ATOM
      1 C2           2.1890     0.0100    -0.4410 c6         1 93B      -0.113400
      2 C3           1.5460     1.2330     0.1830 c6         1 93B       0.092000
      3 N1           0.1020     1.1280     0.0790 ns         1 93B      -0.522900
      4 C           -0.5770    -0.0190     0.0230 cs         1 93B       0.622400
      5 C1           1.5650    -1.2420     0.1430 c6         1 93B       0.092000
      6 N            0.1200    -1.1570     0.0420 ns         1 93B      -0.522900
      7 H1           2.0490     0.0260    -1.5240 hc         1 93B       0.065700
      8 H2           3.2610     0.0160    -0.2480 hc         1 93B       0.065700
      9 H3           1.8450     1.3300     1.2300 h1         1 93B       0.052700
     10 H4           1.8570     2.1420    -0.3310 h1         1 93B       0.052700
     11 H5          -0.4460     1.9720     0.0760 hn         1 93B       0.354500
     12 H6           1.8910    -2.1290    -0.3990 h1         1 93B       0.052700
     13 H7           1.8670    -1.3680     1.1870 h1         1 93B       0.052700
     14 H8          -0.4140    -2.0090     0.0070 hn         1 93B       0.354500
     15 S           -2.2690    -0.0310    -0.0800 s          1 93B      -0.700400
@<TRIPOS>BOND
     1     1     2 1   
     2     1     5 1   
     3     1     7 1   
     4     1     8 1   
     5     2     3 1   
     6     2     9 1   
     7     2    10 1   
     8     3     4 1   
     9     3    11 1   
    10     4     6 1   
    11     4    15 2   
    12     5     6 1   
    13     5    12 1   
    14     5    13 1   
    15     6    14 1   
@<TRIPOS>SUBSTRUCTURE
     1 93B         1 TEMP              0 ****  ****    0 ROOT
