@<TRIPOS>MOLECULE
93C
   44    47     1     0     0
SMALL
abcg2


@<TRIPOS>ATOM
      1 C5           7.8280     1.7500     0.2640 ca         1 93C      -0.088000
      2 C3           6.0030     0.2270     0.0290 cp         1 93C       0.279000
      3 C6           8.6760     0.7180    -0.1040 ca         1 93C      -0.145000
      4 C1           8.1150    -0.5210    -0.3880 ca         1 93C       0.329900
      5 C17         -2.5490    -1.0050     0.5230 ca         1 93C      -0.124000
      6 C9           2.8800    -1.5960    -0.0610 ca         1 93C       0.147400
      7 C4           6.4660     1.5040     0.3320 ca         1 93C      -0.114000
      8 C13          0.4900    -0.9780     0.2590 c          1 93C       0.632700
      9 C7           4.5530    -0.0830     0.0920 cp         1 93C       0.103000
     10 C18         -3.9320    -0.9160     0.5070 ca         1 93C      -0.112500
     11 C23         -6.8680    -0.7380    -0.1630 c          1 93C       0.567000
     12 C24         -8.2540    -0.1440    -0.2730 c5         1 93C      -0.168400
     13 C25         -8.0710     1.3060     0.1490 c5         1 93C      -0.092400
     14 C26         -6.6230     1.5960    -0.2310 c5         1 93C       0.096000
     15 N22         -5.9770     0.2950    -0.0870 n          1 93C      -0.231400
     16 C19         -4.5810     0.1710    -0.0780 ca         1 93C      -0.038000
     17 C20         -3.7960     1.1790    -0.6370 ca         1 93C      -0.112500
     18 C21         -2.4170     1.0960    -0.6180 ca         1 93C      -0.124000
     19 C16         -1.7700     0.0030    -0.0450 ca         1 93C      -0.046000
     20 N15         -0.3690     0.0180    -0.0560 ns         1 93C      -0.137000
     21 O14          0.1580    -2.1060     0.5800 o          1 93C      -0.570100
     22 C10          1.9310    -0.6090     0.1840 ca         1 93C      -0.269600
     23 N8           4.1740    -1.3390    -0.1170 nb         1 93C      -0.160000
     24 C11          2.4370     0.6650     0.4070 ca         1 93C       0.147400
     25 N12          3.7320     0.9250     0.3620 nb         1 93C      -0.160000
     26 N2           6.8170    -0.7650    -0.3240 nb         1 93C      -0.623000
     27 H1           8.2180     2.7320     0.4980 ha         1 93C       0.123000
     28 H2           9.7450     0.8620    -0.1700 ha         1 93C       0.126000
     29 H3           8.7490    -1.3510    -0.6810 h4         1 93C       0.025100
     30 H4          -2.0960    -1.8620     0.9930 ha         1 93C       0.129000
     31 H5           2.5770    -2.6230    -0.2250 h4         1 93C       0.038100
     32 H6           5.7750     2.2850     0.6140 ha         1 93C       0.144000
     33 H7          -4.4950    -1.7070     0.9770 ha         1 93C       0.128000
     34 H8          -8.5740    -0.2250    -1.3160 hc         1 93C       0.079700
     35 H9          -8.9670    -0.7030     0.3320 hc         1 93C       0.079700
     36 H10         -8.7630     1.9910    -0.3360 hc         1 93C       0.060200
     37 H11         -8.1970     1.4050     1.2280 hc         1 93C       0.060200
     38 H12         -6.5460     1.9540    -1.2620 h1         1 93C       0.051200
     39 H13         -6.1510     2.3310     0.4200 h1         1 93C       0.051200
     40 H14         -4.2500     2.0450    -1.0990 ha         1 93C       0.128000
     41 H15         -1.8390     1.8990    -1.0600 ha         1 93C       0.129000
     42 H16          0.0320     0.8650    -0.4290 hn         1 93C       0.151000
     43 H17          1.7920     1.5030     0.6510 h4         1 93C       0.038100
     44 O27         -6.5920    -1.9210    -0.1710 o          1 93C      -0.526000
@<TRIPOS>BOND
     1     1     3 ar  
     2     1     7 ar  
     3     1    27 1   
     4     2     7 ar  
     5     2     9 1   
     6     2    26 ar  
     7     3     4 ar  
     8     3    28 1   
     9     4    26 ar  
    10     4    29 1   
    11     5    10 ar  
    12     5    19 ar  
    13     5    30 1   
    14     6    22 ar  
    15     6    23 ar  
    16     6    31 1   
    17     7    32 1   
    18     8    20 1   
    19     8    21 2   
    20     8    22 1   
    21     9    23 ar  
    22     9    25 ar  
    23    10    16 ar  
    24    10    33 1   
    25    11    12 1   
    26    11    15 1   
    27    11    44 2   
    28    12    13 1   
    29    12    34 1   
    30    12    35 1   
    31    13    14 1   
    32    13    36 1   
    33    13    37 1   
    34    14    15 1   
    35    14    38 1   
    36    14    39 1   
    37    15    16 1   
    38    16    17 ar  
    39    17    18 ar  
    40    17    40 1   
    41    18    19 ar  
    42    18    41 1   
    43    19    20 1   
    44    20    42 1   
    45    22    24 ar  
    46    24    25 ar  
    47    24    43 1   
@<TRIPOS>SUBSTRUCTURE
     1 93C         1 TEMP              0 ****  ****    0 ROOT
