@<TRIPOS>MOLECULE
93C
   44    47     1     0     0
SMALL
No Charge or Current Charge


@<TRIPOS>ATOM
      1 C5           7.9160     1.8130    -0.4640 ca         1 93C      -0.088000
      2 C3           6.0990     0.2360     0.0090 cp         1 93C       0.279000
      3 C6           8.8220     0.7870    -0.1590 ca         1 93C      -0.145000
      4 C1           8.3240    -0.4700     0.2180 ca         1 93C       0.329900
      5 C17         -2.6230    -1.1650     0.2280 ca         1 93C      -0.124000
      6 C9           2.9790    -1.6720     0.5830 ca         1 93C       0.147400
      7 C4           6.5420     1.5320    -0.3790 ca         1 93C      -0.114000
      8 C13          0.5230    -1.0910     0.4130 c          1 93C       0.632700
      9 C7           4.6270    -0.1110     0.1150 cp         1 93C       0.103000
     10 C18         -4.0240    -1.0440     0.1790 ca         1 93C      -0.112500
     11 C23         -6.9470    -0.6040    -0.7060 c          1 93C       0.567000
     12 C24         -8.3010     0.0990    -0.7860 c5         1 93C      -0.168400
     13 C25         -8.2410     1.1030     0.3890 c5         1 93C      -0.092400
     14 C26         -6.7700     1.5990     0.2520 c5         1 93C       0.096000
     15 N22         -6.0670     0.3670    -0.1810 n          1 93C      -0.231400
     16 C19         -4.6440     0.2170     0.0340 ca         1 93C      -0.038000
     17 C20         -3.8100     1.3340    -0.1850 ca         1 93C      -0.112500
     18 C21         -2.4100     1.2160    -0.1400 ca         1 93C      -0.124000
     19 C16         -1.8010    -0.0300     0.0820 ca         1 93C      -0.046000
     20 N15         -0.3780    -0.0740     0.1140 ns         1 93C      -0.137000
     21 O14          0.1870    -2.2180     0.7540 o          1 93C      -0.570100
     22 C10          1.9770    -0.7230     0.3010 ca         1 93C      -0.269600
     23 N8           4.2880    -1.3680     0.4910 nb         1 93C      -0.160000
     24 C11          2.4170     0.5600    -0.0830 ca         1 93C       0.147400
     25 N12          3.7280     0.8580    -0.1740 nb         1 93C      -0.160000
     26 N2           7.0010    -0.7400     0.3000 nb         1 93C      -0.623000
     27 H1           8.2680     2.8000    -0.7600 ha         1 93C       0.123000
     28 H2           9.8940     0.9550    -0.2100 ha         1 93C       0.126000
     29 H3           9.0030    -1.2870     0.4620 h4         1 93C       0.025100
     30 H4          -2.2010    -2.1550     0.3680 ha         1 93C       0.129000
     31 H5           2.7400    -2.6900     0.8880 h4         1 93C       0.038100
     32 H6           5.8260     2.3150    -0.6120 ha         1 93C       0.144000
     33 H7          -4.6150    -1.9460     0.3000 ha         1 93C       0.128000
     34 H8          -8.3320     0.6630    -1.7250 hc         1 93C       0.079700
     35 H9          -9.1310    -0.6150    -0.7630 hc         1 93C       0.079700
     36 H10         -8.9740     1.9140     0.3070 hc         1 93C       0.060200
     37 H11         -8.4010     0.6010     1.3510 hc         1 93C       0.060200
     38 H12         -6.6810     2.3820    -0.5130 h1         1 93C       0.051200
     39 H13         -6.3780     1.9900     1.2000 h1         1 93C       0.051200
     40 H14         -4.2420     2.3100    -0.3930 ha         1 93C       0.128000
     41 H15         -1.7970     2.1030    -0.2890 ha         1 93C       0.129000
     42 H16          0.0590     0.8030    -0.1310 hn         1 93C       0.151000
     43 H17          1.7280     1.3680    -0.3240 h4         1 93C       0.038100
     44 O27         -6.7090    -1.7900    -0.8900 o          1 93C      -0.526000
@<TRIPOS>BOND
     1     1     3 ar  
     2     1     7 ar  
     3     1    27 1   
     4     2     7 ar  
     5     2     9 1   
     6     2    26 ar  
     7     3     4 ar  
     8     3    28 1   
     9     4    26 ar  
    10     4    29 1   
    11     5    10 ar  
    12     5    19 ar  
    13     5    30 1   
    14     6    22 ar  
    15     6    23 ar  
    16     6    31 1   
    17     7    32 1   
    18     8    20 1   
    19     8    21 2   
    20     8    22 1   
    21     9    23 ar  
    22     9    25 ar  
    23    10    16 ar  
    24    10    33 1   
    25    11    12 1   
    26    11    15 1   
    27    11    44 2   
    28    12    13 1   
    29    12    34 1   
    30    12    35 1   
    31    13    14 1   
    32    13    36 1   
    33    13    37 1   
    34    14    15 1   
    35    14    38 1   
    36    14    39 1   
    37    15    16 1   
    38    16    17 ar  
    39    17    18 ar  
    40    17    40 1   
    41    18    19 ar  
    42    18    41 1   
    43    19    20 1   
    44    20    42 1   
    45    22    24 ar  
    46    24    25 ar  
    47    24    43 1   
@<TRIPOS>SUBSTRUCTURE
     1 93C         1 TEMP              0 ****  ****    0 ROOT
