@<TRIPOS>MOLECULE
93E
   13    13     1     0     0
SMALL
No Charge or Current Charge


@<TRIPOS>ATOM
      1 C1           2.2980     0.0180     0.0060 ca         1 93E       0.391900
      2 C3           0.4150    -1.5180    -0.0000 ca         1 93E      -0.024000
      3 Cl          -2.1820    -0.6020     0.0700 cl         1 93E      -0.203000
      4 C4          -0.4250    -0.3950     0.0490 ca         1 93E      -0.010000
      5 C            0.1830     0.8820     0.0770 ca         1 93E       0.617900
      6 N           -0.4830     2.0470     0.1170 nv         1 93E      -1.053900
      7 C2           1.8040    -1.2990    -0.0210 ca         1 93E      -0.218000
      8 N1           1.4940     1.1060     0.0530 nb         1 93E      -0.747000
      9 H1           3.3710     0.2080    -0.0110 h4         1 93E       0.020100
     10 H2           0.0030    -2.5250    -0.0230 ha         1 93E       0.130000
     11 H3          -1.4540     2.0310    -0.1790 hn         1 93E       0.483000
     12 H4           0.0590     2.8650    -0.1340 hn         1 93E       0.483000
     13 H5           2.4960    -2.1360    -0.0590 ha         1 93E       0.129000
@<TRIPOS>BOND
     1     1     7 ar  
     2     1     8 ar  
     3     1     9 1   
     4     2     4 ar  
     5     2     7 ar  
     6     2    10 1   
     7     3     4 1   
     8     4     5 ar  
     9     5     6 1   
    10     5     8 ar  
    11     6    11 1   
    12     6    12 1   
    13     7    13 1   
@<TRIPOS>SUBSTRUCTURE
     1 93E         1 TEMP              0 ****  ****    0 ROOT
