@<TRIPOS>MOLECULE
93E
   13    13     1     0     0
SMALL
bcc


@<TRIPOS>ATOM
      1 C1           2.3040    -0.0280     0.0010 ca         1 93E       0.457200
      2 C3           0.4360    -1.4870     0.0000 ca         1 93E      -0.042000
      3 CL          -2.0940    -0.5360     0.0550 cl         1 93E      -0.111400
      4 C4          -0.3680    -0.3710     0.0290 ca         1 93E      -0.166900
      5 C            0.2110     0.9140     0.0420 ca         1 93E       0.683200
      6 N           -0.5390     2.0420     0.1170 nv         1 93E      -0.943500
      7 C2           1.8170    -1.3210    -0.0130 ca         1 93E      -0.301300
      8 N1           1.5340     1.0530     0.0250 nb         1 93E      -0.747000
      9 H1           3.3730     0.1520    -0.0100 h4         1 93E       0.020100
     10 H2          -0.0060    -2.4750    -0.0110 ha         1 93E       0.148000
     11 H3          -1.5060     2.0070    -0.1580 hn         1 93E       0.427800
     12 H4          -0.0680     2.9050    -0.0980 hn         1 93E       0.427800
     13 H5           2.4850    -2.1700    -0.0350 ha         1 93E       0.147000
@<TRIPOS>BOND
     1     1     7 ar  
     2     1     8 ar  
     3     1     9 1   
     4     2     4 ar  
     5     2     7 ar  
     6     2    10 1   
     7     3     4 1   
     8     4     5 ar  
     9     5     6 1   
    10     5     8 ar  
    11     6    11 1   
    12     6    12 1   
    13     7    13 1   
@<TRIPOS>SUBSTRUCTURE
     1 93E         1 TEMP              0 ****  ****    0 ROOT
