@<TRIPOS>MOLECULE
93F
   59    63     1     0     0
SMALL
No Charge or Current Charge


@<TRIPOS>ATOM
      1 N1         -26.9880   -12.3180   142.4110 n3         1 93F      -0.723600
      2 N3         -28.4290   -15.6860   147.8400 nh         1 93F      -0.806400
      3 C4         -27.8230   -11.9930   141.2270 c3         1 93F       0.167800
      4 C5         -28.1010   -10.4850   141.0180 c3         1 93F      -0.076400
      5 C6         -27.6490   -11.9710   143.7060 c6         1 93F       0.170800
      6 C7         -26.7340   -12.2310   144.9350 c5         1 93F      -0.005400
      7 C8         -27.6210   -12.4520   146.1560 ca         1 93F      -0.106300
      8 C10        -29.1370   -11.9650   147.9800 ca         1 93F      -0.109000
      9 C13        -27.6930   -13.7870   146.4750 ca         1 93F       0.193000
     10 C15        -27.7360   -16.5910   146.8530 c6         1 93F       0.210800
     11 C17        -28.8100   -10.1710   139.6820 c3         1 93F      -0.022100
     12 C20        -32.5780   -10.6880   140.1460 ca         1 93F      -0.145000
     13 C21        -32.7990   -11.9010   139.4780 ca         1 93F      -0.078000
     14 C22        -31.7260   -12.5690   138.8640 ca         1 93F      -0.197000
     15 C24        -29.4700   -13.9300   137.6550 c3         1 93F       0.149900
     16 C1         -25.9380   -13.6120   144.8850 c5         1 93F       0.201500
     17 C2         -25.5000   -14.0320   143.4660 c6         1 93F      -0.064400
     18 C3         -26.5880   -13.7530   142.4110 c6         1 93F       0.171800
     19 C9         -28.3540   -11.5110   146.8960 ca         1 93F      -0.106000
     20 C11        -29.1860   -13.3410   148.3140 ca         1 93F      -0.147000
     21 C12        -28.4520   -14.2850   147.5590 ca         1 93F       0.281000
     22 N2         -26.8530   -14.5160   145.6390 nh         1 93F      -0.761400
     23 C14        -26.5400   -15.9100   146.0760 c6         1 93F       0.184800
     24 C16        -29.2420   -16.3020   148.9110 c3         1 93F       0.205100
     25 C18        -30.2030   -10.7980   139.5890 ca         1 93F      -0.101300
     26 C19        -31.2870   -10.1400   140.2020 ca         1 93F      -0.080000
     27 C23        -30.4220   -12.0240   138.9150 ca         1 93F       0.134100
     28 H2         -28.7830   -12.5250   141.2910 h1         1 93F       0.032700
     29 H3         -27.3160   -12.3580   140.3230 h1         1 93F       0.032700
     30 H4         -27.1480    -9.9420   141.0470 hc         1 93F       0.047200
     31 H5         -28.7160   -10.0980   141.8380 hc         1 93F       0.047200
     32 H6         -27.9540   -10.9160   143.7290 h1         1 93F       0.040200
     33 H7         -28.5680   -12.5680   143.8120 h1         1 93F       0.040200
     34 H8         -26.0580   -11.3740   145.0240 hc         1 93F       0.072700
     35 H9         -29.7090   -11.2490   148.5670 ha         1 93F       0.109000
     36 H10        -28.4710   -16.9350   146.1110 h1         1 93F       0.043700
     37 H11        -27.3500   -17.4880   147.3590 h1         1 93F       0.043700
     38 H12        -28.1710   -10.4910   138.8500 hc         1 93F       0.054200
     39 H13        -28.8920    -9.0820   139.5820 hc         1 93F       0.054200
     40 H15        -33.8000   -12.3240   139.4360 ha         1 93F       0.110000
     41 H16        -31.9280   -13.5070   138.3560 ha         1 93F       0.115000
     42 H17        -28.4940   -14.2540   137.2740 h1         1 93F       0.039367
     43 H18        -29.8390   -14.7020   138.3430 h1         1 93F       0.039367
     44 H19        -30.1590   -13.8550   136.8050 h1         1 93F       0.039367
     45 H20        -25.0160   -13.5100   145.4750 h1         1 93F       0.035700
     46 H21        -25.2170   -15.0920   143.4520 hc         1 93F       0.048700
     47 H22        -24.5980   -13.4680   143.1940 hc         1 93F       0.048700
     48 H23        -27.4590   -14.3980   142.6040 h1         1 93F       0.034200
     49 H24        -26.1890   -14.0380   141.4260 h1         1 93F       0.034200
     50 H25        -28.3190   -10.4540   146.6410 ha         1 93F       0.115000
     51 H26        -29.7890   -13.6610   149.1570 ha         1 93F       0.110000
     52 H27        -26.2800   -16.5350   145.2100 h1         1 93F       0.043700
     53 H28        -25.6620   -15.8900   146.7380 h1         1 93F       0.043700
     54 H29        -28.9550   -15.8970   149.8910 h1         1 93F       0.033367
     55 H30        -30.3090   -16.1070   148.7440 h1         1 93F       0.033367
     56 H31        -29.0950   -17.3900   148.9370 h1         1 93F       0.033367
     57 H32        -31.1280    -9.2000   140.7260 ha         1 93F       0.116000
     58 H14        -33.4090   -10.1710   140.6230 ha         1 93F       0.115000
     59 O1         -29.3460   -12.6640   138.3270 os         1 93F      -0.346100
@<TRIPOS>BOND
     1     1     3 1   
     2     1     5 1   
     3     1    18 1   
     4     2    10 1   
     5     2    21 1   
     6     2    24 1   
     7     3     4 1   
     8     3    28 1   
     9     3    29 1   
    10     4    11 1   
    11     4    30 1   
    12     4    31 1   
    13     5     6 1   
    14     5    32 1   
    15     5    33 1   
    16     6     7 1   
    17     6    16 1   
    18     6    34 1   
    19     7     9 ar  
    20     7    19 ar  
    21     8    19 ar  
    22     8    20 ar  
    23     8    35 1   
    24     9    21 ar  
    25     9    22 1   
    26    10    23 1   
    27    10    36 1   
    28    10    37 1   
    29    11    25 1   
    30    11    38 1   
    31    11    39 1   
    32    12    13 ar  
    33    12    26 ar  
    34    12    58 1   
    35    13    14 ar  
    36    13    40 1   
    37    14    27 ar  
    38    14    41 1   
    39    15    42 1   
    40    15    43 1   
    41    15    44 1   
    42    15    59 1   
    43    16    17 1   
    44    16    22 1   
    45    16    45 1   
    46    17    18 1   
    47    17    46 1   
    48    17    47 1   
    49    18    48 1   
    50    18    49 1   
    51    19    50 1   
    52    20    21 ar  
    53    20    51 1   
    54    22    23 1   
    55    23    52 1   
    56    23    53 1   
    57    24    54 1   
    58    24    55 1   
    59    24    56 1   
    60    25    26 ar  
    61    25    27 ar  
    62    26    57 1   
    63    27    59 1   
@<TRIPOS>SUBSTRUCTURE
     1 93F         1 TEMP              0 ****  ****    0 ROOT
