@<TRIPOS>MOLECULE
93F
   59    63     1     0     0
SMALL
bcc


@<TRIPOS>ATOM
      1 N1         -26.8660   -12.8680   142.6060 n3         1 93F      -0.723600
      2 N3         -28.3030   -15.2820   148.3190 nh         1 93F      -0.668000
      3 C4         -27.5880   -12.8140   141.3450 c3         1 93F       0.167800
      4 C5         -27.7880   -11.3870   140.8430 c3         1 93F      -0.076400
      5 C6         -27.6950   -12.4740   143.7290 c6         1 93F       0.170800
      6 C7         -26.8730   -12.3090   145.0110 c5         1 93F      -0.005400
      7 C8         -27.7900   -12.3200   146.2070 ca         1 93F      -0.106300
      8 C10        -29.3840   -11.7370   147.8730 ca         1 93F      -0.127000
      9 C13        -27.7820   -13.6110   146.7000 ca         1 93F       0.054600
     10 C15        -27.6460   -16.2240   147.4310 c6         1 93F       0.210800
     11 C17        -28.4750   -11.3100   139.4840 c3         1 93F      -0.022100
     12 C20        -32.0900   -12.0390   140.5320 ca         1 93F      -0.163000
     13 C21        -32.7150   -12.0950   139.3000 ca         1 93F      -0.096000
     14 C22        -31.9810   -11.9010   138.1350 ca         1 93F      -0.215000
     15 C24        -30.4280   -11.4630   135.8430 c3         1 93F       0.126700
     16 C1         -25.9990   -13.5510   145.2920 c5         1 93F       0.201500
     17 C2         -25.3610   -14.1360   144.0460 c6         1 93F      -0.064400
     18 C3         -26.3100   -14.1850   142.8610 c6         1 93F       0.171800
     19 C9         -28.6090   -11.3590   146.7800 ca         1 93F      -0.124000
     20 C11        -29.3370   -13.0320   148.3920 ca         1 93F      -0.165000
     21 C12        -28.5010   -14.0040   147.8290 ca         1 93F       0.142600
     22 N2         -26.9380   -14.4420   145.9740 nh         1 93F      -0.623000
     23 C14        -26.4620   -15.5830   146.7180 c6         1 93F       0.184800
     24 C16        -29.2400   -15.8310   149.2640 c3         1 93F       0.205100
     25 C18        -29.9560   -11.6010   139.4510 ca         1 93F      -0.101300
     26 C19        -30.7210   -11.7910   140.5930 ca         1 93F      -0.098000
     27 C23        -30.6140   -11.6540   138.2070 ca         1 93F       0.134100
     28 H2         -28.5510   -13.3480   141.4070 h1         1 93F       0.032700
     29 H3         -26.9960   -13.3480   140.5980 h1         1 93F       0.032700
     30 H4         -26.8010   -10.9280   140.7480 hc         1 93F       0.047200
     31 H5         -28.3290   -10.7780   141.5710 hc         1 93F       0.047200
     32 H6         -28.1880   -11.5240   143.5150 h1         1 93F       0.040200
     33 H7         -28.4980   -13.2130   143.8990 h1         1 93F       0.040200
     34 H8         -26.2580   -11.4110   144.9360 hc         1 93F       0.072700
     35 H9         -30.0370   -11.0140   148.3450 ha         1 93F       0.127000
     36 H10        -28.3400   -16.6360   146.6850 h1         1 93F       0.043700
     37 H11        -27.2830   -17.0620   148.0280 h1         1 93F       0.043700
     38 H12        -27.9590   -11.9850   138.7930 hc         1 93F       0.054200
     39 H13        -28.3130   -10.3080   139.0740 hc         1 93F       0.054200
     40 H15        -33.7780   -12.2880   139.2300 ha         1 93F       0.128000
     41 H16        -32.4910   -11.9440   137.1810 ha         1 93F       0.133000
     42 H17        -29.6290   -11.2680   135.1320 h1         1 93F       0.039367
     43 H18        -30.8750   -12.4330   135.6110 h1         1 93F       0.039367
     44 H19        -31.1920   -10.6890   135.7320 h1         1 93F       0.039367
     45 H20        -25.2030   -13.2630   146.0000 h1         1 93F       0.035700
     46 H21        -24.9620   -15.1330   144.2520 hc         1 93F       0.048700
     47 H22        -24.5050   -13.5110   143.7810 hc         1 93F       0.048700
     48 H23        -27.1010   -14.9350   143.0390 h1         1 93F       0.034200
     49 H24        -25.7590   -14.5140   141.9770 h1         1 93F       0.034200
     50 H25        -28.6400   -10.3450   146.4000 ha         1 93F       0.133000
     51 H26        -29.9470   -13.2660   149.2540 ha         1 93F       0.128000
     52 H27        -26.0180   -16.3160   146.0420 h1         1 93F       0.043700
     53 H28        -25.6920   -15.3050   147.4530 h1         1 93F       0.043700
     54 H29        -29.3520   -15.1750   150.1280 h1         1 93F       0.033367
     55 H30        -30.2360   -16.0040   148.8380 h1         1 93F       0.033367
     56 H31        -28.8610   -16.7830   149.6320 h1         1 93F       0.033367
     57 H32        -30.2490   -11.7470   141.5660 ha         1 93F       0.134000
     58 H14        -32.6540   -12.1860   141.4440 ha         1 93F       0.133000
     59 O1         -29.8370   -11.4430   137.1250 os         1 93F      -0.322900
@<TRIPOS>BOND
     1     1     3 1   
     2     1     5 1   
     3     1    18 1   
     4     2    10 1   
     5     2    21 1   
     6     2    24 1   
     7     3     4 1   
     8     3    28 1   
     9     3    29 1   
    10     4    11 1   
    11     4    30 1   
    12     4    31 1   
    13     5     6 1   
    14     5    32 1   
    15     5    33 1   
    16     6     7 1   
    17     6    16 1   
    18     6    34 1   
    19     7     9 ar  
    20     7    19 ar  
    21     8    19 ar  
    22     8    20 ar  
    23     8    35 1   
    24     9    21 ar  
    25     9    22 1   
    26    10    23 1   
    27    10    36 1   
    28    10    37 1   
    29    11    25 1   
    30    11    38 1   
    31    11    39 1   
    32    12    13 ar  
    33    12    26 ar  
    34    12    58 1   
    35    13    14 ar  
    36    13    40 1   
    37    14    27 ar  
    38    14    41 1   
    39    15    42 1   
    40    15    43 1   
    41    15    44 1   
    42    15    59 1   
    43    16    17 1   
    44    16    22 1   
    45    16    45 1   
    46    17    18 1   
    47    17    46 1   
    48    17    47 1   
    49    18    48 1   
    50    18    49 1   
    51    19    50 1   
    52    20    21 ar  
    53    20    51 1   
    54    22    23 1   
    55    23    52 1   
    56    23    53 1   
    57    24    54 1   
    58    24    55 1   
    59    24    56 1   
    60    25    26 ar  
    61    25    27 ar  
    62    26    57 1   
    63    27    59 1   
@<TRIPOS>SUBSTRUCTURE
     1 93F         1 TEMP              0 ****  ****    0 ROOT
