@<TRIPOS>MOLECULE
93G
   40    42     1     0     0
SMALL
abcg2


@<TRIPOS>ATOM
      1 N1           4.4790    -1.6840     0.2220 ns         1 93G      -0.448400
      2 C2           3.3070    -2.1210    -0.3290 cc         1 93G       0.789800
      3 N2           3.1730    -3.4270    -0.5210 nv         1 93G      -1.019200
      4 N3           2.3300    -1.3040    -0.6700 nd         1 93G      -0.705100
      5 C4           2.6040    -0.0300    -0.4220 cd         1 93G       0.237400
      6 C5           3.7450     0.4990     0.1290 cc         1 93G      -0.367600
      7 C6           4.8190    -0.3610     0.5040 c          1 93G       0.635600
      8 O6           5.8890    -0.0630     0.9960 o          1 93G      -0.477000
      9 N7           3.5740     1.8650     0.2020 na         1 93G       0.082300
     10 C8           2.3880     2.1490    -0.2840 cc         1 93G      -0.036300
     11 N9           1.7760     1.0290    -0.6870 na         1 93G       0.048000
     12 CG          -1.9450     0.3670    -0.4480 ca         1 93G      -0.270600
     13 NN          -4.7720    -0.9200     2.5000 nt         1 93G      -0.570000
     14 ON          -6.4010    -0.6370     0.9900 o          1 93G      -0.637100
     15 CZ          -4.6680     0.0820    -1.0530 ca         1 93G       0.277100
     16 C1           0.4330     0.9310    -1.1960 c3         1 93G      -0.046400
     17 C3          -0.5300     0.5310    -0.0840 c          1 93G       0.592700
     18 O2          -0.1130     0.3690     1.0400 o          1 93G      -0.523100
     19 CD1         -2.4210     0.5970    -1.7460 ca         1 93G      -0.009000
     20 CD2         -2.8530    -0.0180     0.5320 ca         1 93G       0.043000
     21 CE1         -3.7540     0.4590    -2.0450 ca         1 93G      -0.183000
     22 CE2         -4.2040    -0.1760     0.2600 ca         1 93G      -0.294600
     23 CM7          4.5380     2.8300     0.7040 c3         1 93G       0.043900
     24 HN1          5.1850    -2.3730     0.4550 hn         1 93G       0.352500
     25 HN2          3.8730    -4.0910    -0.2390 hn         1 93G       0.533500
     26 HN2A         2.3120    -3.7810    -0.9010 hn         1 93G       0.533500
     27 H8           1.9700     3.1390    -0.3610 h5         1 93G       0.224000
     28 HOH         -6.4300    -0.2760    -0.5530 ho         1 93G       0.543000
     29 HNN         -5.4410    -1.2160     3.1930 hn         1 93G       0.329500
     30 HNNA        -3.8040    -0.9530     2.7640 hn         1 93G       0.329500
     31 H1           0.1500     1.8940    -1.6220 h1         1 93G       0.109200
     32 H1'A         0.4170     0.2010    -2.0060 h1         1 93G       0.109200
     33 HD1         -1.7520     0.8920    -2.5440 ha         1 93G       0.108000
     34 HD2         -2.4690    -0.1880     1.5300 ha         1 93G       0.125000
     35 HE1         -4.1150     0.6470    -3.0470 ha         1 93G       0.150000
     36 HM7          5.4260     2.8170     0.0790 h1         1 93G       0.093700
     37 HM7A         4.0880     3.8170     0.6750 h1         1 93G       0.093700
     38 HM7B         4.8030     2.5820     1.7270 h1         1 93G       0.093700
     39 OH          -5.9400    -0.0210    -1.3850 oh         1 93G      -0.525100
     40 CN          -5.1960    -0.5950     1.2830 c          1 93G       0.633700
@<TRIPOS>BOND
     1     1     2 1   
     2     1     7 1   
     3     1    24 1   
     4     2     3 1   
     5     2     4 2   
     6     3    25 1   
     7     3    26 1   
     8     4     5 1   
     9     5     6 2   
    10     5    11 1   
    11     6     7 1   
    12     6     9 1   
    13     7     8 2   
    14     9    10 2   
    15     9    23 1   
    16    10    11 1   
    17    10    27 1   
    18    11    16 1   
    19    12    17 1   
    20    12    19 ar  
    21    12    20 ar  
    22    13    29 1   
    23    13    30 1   
    24    13    40 1   
    25    14    40 2   
    26    15    21 ar  
    27    15    22 ar  
    28    15    39 1   
    29    16    17 1   
    30    16    31 1   
    31    16    32 1   
    32    17    18 2   
    33    19    21 ar  
    34    19    33 1   
    35    20    22 ar  
    36    20    34 1   
    37    21    35 1   
    38    22    40 1   
    39    23    36 1   
    40    23    37 1   
    41    23    38 1   
    42    28    39 1   
@<TRIPOS>SUBSTRUCTURE
     1 93G         1 TEMP              0 ****  ****    0 ROOT
