@<TRIPOS>MOLECULE
93G
   40    42     1     0     0
SMALL
No Charge or Current Charge


@<TRIPOS>ATOM
      1 N1           4.4700    -1.7530     0.1180 ns         1 93G      -0.448400
      2 C2           3.2510    -2.0710    -0.3480 cc         1 93G       0.789800
      3 N2           3.0180    -3.3520    -0.5430 nv         1 93G      -1.019200
      4 N3           2.2670    -1.2560    -0.6360 nd         1 93G      -0.705100
      5 C4           2.5850     0.0760    -0.4010 cd         1 93G       0.237400
      6 C5           3.8100     0.4710     0.0750 cc         1 93G      -0.367600
      7 C6           4.8650    -0.4900     0.3670 c          1 93G       0.635600
      8 O6           5.9760    -0.2140     0.7840 o          1 93G      -0.477000
      9 N7           3.7740     1.8670     0.1860 na         1 93G       0.082300
     10 C8           2.5220     2.3090    -0.2280 cc         1 93G      -0.036300
     11 N9           1.8090     1.1930    -0.5820 na         1 93G       0.048000
     12 CG          -2.0320     0.5060    -0.4080 ca         1 93G      -0.270600
     13 NN          -4.8490    -0.9770     2.5010 nt         1 93G      -0.570000
     14 ON          -6.4020    -1.1130     0.9300 o          1 93G      -0.637100
     15 CZ          -4.6790    -0.1360    -1.1370 ca         1 93G       0.277100
     16 C1           0.4210     1.1740    -1.0740 c3         1 93G      -0.046400
     17 C3          -0.6150     0.8460     0.0100 c          1 93G       0.592700
     18 O2          -0.3130     0.8690     1.1980 o          1 93G      -0.523100
     19 CD1         -2.4650     0.6690    -1.7420 ca         1 93G      -0.009000
     20 CD2         -2.9450     0.0210     0.5550 ca         1 93G       0.043000
     21 CE1         -3.7820     0.3470    -2.0950 ca         1 93G      -0.183000
     22 CE2         -4.2770    -0.3060     0.2040 ca         1 93G      -0.294600
     23 CM7          4.8690     2.7260     0.6570 c3         1 93G       0.043900
     24 HN1          5.1510    -2.4780     0.2620 hn         1 93G       0.352500
     25 HN2          3.4170    -3.9820     0.1410 hn         1 93G       0.533500
     26 HN2A         2.0460    -3.5370    -0.7530 hn         1 93G       0.533500
     27 H8           2.1770     3.3360    -0.2580 h5         1 93G       0.224000
     28 HOH         -6.4030    -0.7550    -0.7030 ho         1 93G       0.543000
     29 HNN         -5.5070    -1.3250     3.1820 hn         1 93G       0.329500
     30 HNNA        -3.9080    -0.7470     2.7730 hn         1 93G       0.329500
     31 H1           0.1660     2.1480    -1.5070 h1         1 93G       0.109200
     32 H1'A         0.3390     0.4130    -1.8580 h1         1 93G       0.109200
     33 HD1         -1.8010     1.0500    -2.5150 ha         1 93G       0.108000
     34 HD2         -2.6050    -0.1020     1.5810 ha         1 93G       0.125000
     35 HE1         -4.1120     0.4740    -3.1230 ha         1 93G       0.150000
     36 HM7          5.7410     2.5980     0.0050 h1         1 93G       0.093700
     37 HM7A         4.5570     3.7770     0.6410 h1         1 93G       0.093700
     38 HM7B         5.1390     2.4450     1.6820 h1         1 93G       0.093700
     39 OH          -5.9470    -0.4350    -1.5280 oh         1 93G      -0.525100
     40 CN          -5.2530    -0.8260     1.2270 c          1 93G       0.633700
@<TRIPOS>BOND
     1     1     2 1   
     2     1     7 1   
     3     1    24 1   
     4     2     3 1   
     5     2     4 2   
     6     3    25 1   
     7     3    26 1   
     8     4     5 1   
     9     5     6 2   
    10     5    11 1   
    11     6     7 1   
    12     6     9 1   
    13     7     8 2   
    14     9    10 2   
    15     9    23 1   
    16    10    11 1   
    17    10    27 1   
    18    11    16 1   
    19    12    17 1   
    20    12    19 ar  
    21    12    20 ar  
    22    13    29 1   
    23    13    30 1   
    24    13    40 1   
    25    14    40 2   
    26    15    21 ar  
    27    15    22 ar  
    28    15    39 1   
    29    16    17 1   
    30    16    31 1   
    31    16    32 1   
    32    17    18 2   
    33    19    21 ar  
    34    19    33 1   
    35    20    22 ar  
    36    20    34 1   
    37    21    35 1   
    38    22    40 1   
    39    23    36 1   
    40    23    37 1   
    41    23    38 1   
    42    28    39 1   
@<TRIPOS>SUBSTRUCTURE
     1 93G         1 TEMP              0 ****  ****    0 ROOT
