@<TRIPOS>MOLECULE
93H
   42    43     1     0     0
SMALL
No Charge or Current Charge


@<TRIPOS>ATOM
      1 C10         -1.3430    -0.6410    -0.2990 c3         1 93H       0.160800
      2 C13         -4.5340     0.1950    -1.1150 ca         1 93H      -0.120000
      3 C15         -6.2860     0.3870     0.5730 ca         1 93H       0.041100
      4 C17         -5.6360    -0.5810     1.3570 ca         1 93H      -0.157000
      5 C20          4.2780    -1.1520     0.8260 ca         1 93H      -0.071000
      6 C21          5.4790    -0.5610     1.2550 ca         1 93H      -0.170000
      7 C01          7.9920     1.9980     0.2360 c3         1 93H       0.148900
      8 C03          6.1000     0.4320     0.4810 ca         1 93H       0.138100
      9 C04          5.5090     0.8350    -0.7360 ca         1 93H      -0.170000
     10 C05          4.3070     0.2430    -1.1650 ca         1 93H      -0.071000
     11 C06          3.6870    -0.7530    -0.3880 ca         1 93H      -0.117300
     12 C07          2.3810    -1.3890    -0.8510 c3         1 93H      -0.027100
     13 C11         -2.5780    -1.4050    -0.8160 c3         1 93H      -0.031100
     14 C12         -3.8800    -0.7780    -0.3330 ca         1 93H      -0.073300
     15 C14         -5.7310     0.7740    -0.6640 ca         1 93H       0.123100
     16 C18         -4.4370    -1.1600     0.9040 ca         1 93H      -0.107000
     17 N09         -0.0990    -1.2750    -0.7790 n7         1 93H      -0.866400
     18 O19         -6.3670     1.7150    -1.4190 oh         1 93H      -0.536100
     19 H1          -1.3990     0.4010    -0.6430 h1         1 93H       0.033200
     20 H2          -1.3660    -0.6320     0.8000 h1         1 93H       0.033200
     21 H3          -4.1150     0.5030    -2.0700 ha         1 93H       0.129000
     22 H4          -6.0520    -0.8880     2.3140 ha         1 93H       0.113000
     23 H5           3.8070    -1.9190     1.4380 ha         1 93H       0.111000
     24 H6           5.9300    -0.8730     2.1930 ha         1 93H       0.121000
     25 H7           7.3700     2.8940     0.1110 h1         1 93H       0.040033
     26 H8           8.8960     2.2870     0.7860 h1         1 93H       0.040033
     27 H9           8.2970     1.6390    -0.7550 h1         1 93H       0.040033
     28 H10          5.9620     1.6010    -1.3580 ha         1 93H       0.121000
     29 H11          3.8570     0.5620    -2.1030 ha         1 93H       0.111000
     30 H12          2.3430    -1.4120    -1.9470 hc         1 93H       0.051700
     31 H13          2.3330    -2.4340    -0.5200 hc         1 93H       0.051700
     32 H14          1.1870    -0.6250     0.7820 h1         1 93H       0.032700
     33 H15          1.1920     0.4090    -0.6590 h1         1 93H       0.032700
     34 H16         -2.5560    -1.4290    -1.9120 hc         1 93H       0.054200
     35 H17         -2.5190    -2.4490    -0.4840 hc         1 93H       0.054200
     36 H18         -3.9380    -1.9080     1.5170 ha         1 93H       0.117000
     37 H19         -0.1060    -1.2540    -1.8060 hn         1 93H       0.403000
     38 H21         -7.6890     0.5690     1.8820 ho         1 93H       0.474000
     39 H22         -7.1690     1.9700    -0.9080 ho         1 93H       0.481000
     40 O16         -7.4540     0.9550     1.0090 oh         1 93H      -0.559100
     41 C08          1.1480    -0.6340    -0.3160 c3         1 93H       0.160800
     42 O02          7.2770     0.9760     0.9530 os         1 93H      -0.342100
@<TRIPOS>BOND
     1     1    13 1   
     2     1    17 1   
     3     1    19 1   
     4     1    20 1   
     5     2    14 ar  
     6     2    15 ar  
     7     2    21 1   
     8     3     4 ar  
     9     3    15 ar  
    10     3    40 1   
    11     4    16 ar  
    12     4    22 1   
    13     5     6 ar  
    14     5    11 ar  
    15     5    23 1   
    16     6     8 ar  
    17     6    24 1   
    18     7    25 1   
    19     7    26 1   
    20     7    27 1   
    21     7    42 1   
    22     8     9 ar  
    23     8    42 1   
    24     9    10 ar  
    25     9    28 1   
    26    10    11 ar  
    27    10    29 1   
    28    11    12 1   
    29    12    30 1   
    30    12    31 1   
    31    12    41 1   
    32    13    14 1   
    33    13    34 1   
    34    13    35 1   
    35    14    16 ar  
    36    15    18 1   
    37    16    36 1   
    38    17    37 1   
    39    17    41 1   
    40    18    39 1   
    41    32    41 1   
    42    33    41 1   
    43    38    40 1   
@<TRIPOS>SUBSTRUCTURE
     1 93H         1 TEMP              0 ****  ****    0 ROOT
