@<TRIPOS>MOLECULE
93H
   42    43     1     0     0
SMALL
abcg2


@<TRIPOS>ATOM
      1 C10         -1.3040    -0.7050    -0.3450 c3         1 93H       0.160800
      2 C13         -4.5080     0.1500    -1.0910 ca         1 93H      -0.120000
      3 C15         -6.1280     0.3850     0.6730 ca         1 93H       0.041100
      4 C17         -5.4410    -0.5650     1.4100 ca         1 93H      -0.157000
      5 C20          4.1130    -1.0030     0.8410 ca         1 93H      -0.071000
      6 C21          5.2590    -0.3990     1.3230 ca         1 93H      -0.170000
      7 C01          7.8460     1.9310     0.2860 c3         1 93H       0.148900
      8 C03          5.9630     0.5100     0.5280 ca         1 93H       0.138100
      9 C04          5.4930     0.7960    -0.7500 ca         1 93H      -0.170000
     10 C05          4.3360     0.1780    -1.2130 ca         1 93H      -0.071000
     11 C06          3.6250    -0.7290    -0.4390 ca         1 93H      -0.117300
     12 C07          2.3570    -1.3610    -0.9370 c3         1 93H      -0.027100
     13 C11         -2.5420    -1.4090    -0.8930 c3         1 93H      -0.031100
     14 C12         -3.8110    -0.8080    -0.3560 ca         1 93H      -0.073300
     15 C14         -5.6570     0.7460    -0.5950 ca         1 93H       0.123100
     16 C18         -4.2920    -1.1590     0.8990 ca         1 93H      -0.107000
     17 N09         -0.0930    -1.2940    -0.8810 n7         1 93H      -0.866400
     18 O19         -6.2970     1.6630    -1.3530 oh         1 93H      -0.536100
     19 H1          -1.3820     0.3750    -0.5470 h1         1 93H       0.033200
     20 H2          -1.2840    -0.8110     0.7440 h1         1 93H       0.033200
     21 H3          -4.1570     0.4380    -2.0760 ha         1 93H       0.129000
     22 H4          -5.8050    -0.8480     2.3910 ha         1 93H       0.113000
     23 H5           3.5900    -1.7100     1.4740 ha         1 93H       0.111000
     24 H6           5.6220    -0.6290     2.3170 ha         1 93H       0.121000
     25 H7           7.2870     2.8280     0.0040 h1         1 93H       0.040033
     26 H8           8.6970     2.2270     0.8950 h1         1 93H       0.040033
     27 H9           8.2150     1.4480    -0.6230 h1         1 93H       0.040033
     28 H10          6.0080     1.4900    -1.4010 ha         1 93H       0.121000
     29 H11          3.9890     0.4120    -2.2130 ha         1 93H       0.111000
     30 H12          2.3260    -1.3060    -2.0290 hc         1 93H       0.051700
     31 H13          2.3280    -2.4220    -0.6740 hc         1 93H       0.051700
     32 H14          1.1150    -0.7820     0.7230 h1         1 93H       0.032700
     33 H15          1.1690     0.4010    -0.5730 h1         1 93H       0.032700
     34 H16         -2.5370    -1.3460    -1.9850 hc         1 93H       0.054200
     35 H17         -2.4850    -2.4700    -0.6380 hc         1 93H       0.054200
     36 H18         -3.7740    -1.9030     1.4920 ha         1 93H       0.117000
     37 H19         -0.1030    -1.1960    -1.8910 hn         1 93H       0.403000
     38 H21         -7.5060     0.7070     1.9740 ho         1 93H       0.474000
     39 H22         -7.0840     1.9850    -0.8990 ho         1 93H       0.481000
     40 O16         -7.2560     1.0090     1.0940 oh         1 93H      -0.559100
     41 C08          1.1150    -0.6800    -0.3680 c3         1 93H       0.160800
     42 O02          7.0720     1.0500     1.0740 os         1 93H      -0.342100
@<TRIPOS>BOND
     1     1    13 1   
     2     1    17 1   
     3     1    19 1   
     4     1    20 1   
     5     2    14 ar  
     6     2    15 ar  
     7     2    21 1   
     8     3     4 ar  
     9     3    15 ar  
    10     3    40 1   
    11     4    16 ar  
    12     4    22 1   
    13     5     6 ar  
    14     5    11 ar  
    15     5    23 1   
    16     6     8 ar  
    17     6    24 1   
    18     7    25 1   
    19     7    26 1   
    20     7    27 1   
    21     7    42 1   
    22     8     9 ar  
    23     8    42 1   
    24     9    10 ar  
    25     9    28 1   
    26    10    11 ar  
    27    10    29 1   
    28    11    12 1   
    29    12    30 1   
    30    12    31 1   
    31    12    41 1   
    32    13    14 1   
    33    13    34 1   
    34    13    35 1   
    35    14    16 ar  
    36    15    18 1   
    37    16    36 1   
    38    17    37 1   
    39    17    41 1   
    40    18    39 1   
    41    32    41 1   
    42    33    41 1   
    43    38    40 1   
@<TRIPOS>SUBSTRUCTURE
     1 93H         1 TEMP              0 ****  ****    0 ROOT
