@<TRIPOS>MOLECULE
93I
   51    54     1     0     0
SMALL
No Charge or Current Charge


@<TRIPOS>ATOM
      1 C11        -12.9690     5.4020     5.1250 ca         1 93I      -0.124000
      2 C12        -12.4110     6.3020     6.0490 ca         1 93I      -0.099000
      3 C02        -17.6200    11.2740     4.0070 c          1 93I       0.541000
      4 C04        -16.4980    10.1990     5.8840 cc         1 93I       0.128000
      5 C05        -16.5570     9.8100     7.2910 cc         1 93I      -0.135300
      6 C06        -15.3550     9.0830     7.8920 c3         1 93I       0.252800
      7 C08        -14.6490     6.9000     6.8230 ca         1 93I       0.237000
      8 C09        -15.2000     5.9920     5.9020 ca         1 93I      -0.134000
      9 C10        -14.3640     5.2460     5.0520 ca         1 93I      -0.099000
     10 C13        -13.2510     7.0490     6.8960 ca         1 93I      -0.134000
     11 C14        -15.1190     9.3240     9.3990 c3         1 93I      -0.093100
     12 C15        -17.6840    10.0900     8.0490 cd         1 93I      -0.013000
     13 C16        -18.8030    10.7860     7.4950 cd         1 93I      -0.159300
     14 C17        -20.0170    11.0890     8.3370 c3         1 93I      -0.034800
     15 C18        -18.7130    11.1560     6.1760 cc         1 93I      -0.055000
     16 C20        -15.3850    10.2410     3.8300 cd         1 93I       0.484600
     17 C22        -13.6320    10.7740     2.0990 c6         1 93I       0.190800
     18 C23        -12.7910     9.9940     1.0460 c6         1 93I       0.143600
     19 C25        -12.4760     8.1360     2.5420 c6         1 93I       0.143600
     20 C26        -13.3100     8.8240     3.6590 c6         1 93I       0.190800
     21 C27        -16.4320    10.9080     3.2720 cc         1 93I      -0.519200
     22 N03        -17.6120    10.8790     5.3560 n          1 93I       0.006200
     23 N07        -15.4950     7.6420     7.6500 nu         1 93I      -0.892200
     24 N19        -15.4130     9.8870     5.1680 nd         1 93I      -0.462600
     25 N21        -14.2510     9.8600     3.1140 nh         1 93I      -0.667400
     26 O24        -11.8380     9.1200     1.6950 os         1 93I      -0.452000
     27 H1         -12.3210     4.8240     4.4690 ha         1 93I       0.113000
     28 H2         -11.3320     6.4210     6.1100 ha         1 93I       0.110500
     29 H3         -14.4450     9.4530     7.4010 h1         1 93I       0.054700
     30 H4         -16.2780     5.8700     5.8370 ha         1 93I       0.115500
     31 H5         -14.7960     4.5480     4.3380 ha         1 93I       0.110500
     32 H6         -12.8120     7.7390     7.6110 ha         1 93I       0.115500
     33 H7         -15.0870    10.3990     9.6150 hc         1 93I       0.043033
     34 H8         -15.9030     8.8660    10.0130 hc         1 93I       0.043033
     35 H9         -14.1600     8.8910     9.7060 hc         1 93I       0.043033
     36 H10        -17.7380     9.7830     9.0880 ha         1 93I       0.131000
     37 H11        -20.5390    10.1660     8.6170 hc         1 93I       0.047700
     38 H12        -19.7360    11.6090     9.2600 hc         1 93I       0.047700
     39 H13        -20.7320    11.7270     7.8030 hc         1 93I       0.047700
     40 H14        -19.4990    11.6880     5.6520 h4         1 93I       0.174000
     41 H15        -12.9780    11.4980     2.6060 h1         1 93I       0.064700
     42 H16        -14.3930    11.3580     1.5650 h1         1 93I       0.064700
     43 H17        -12.2510    10.7030     0.4030 h1         1 93I       0.053950
     44 H18        -13.4560     9.3950     0.4080 h1         1 93I       0.053950
     45 H19        -13.1310     7.5010     1.9280 h1         1 93I       0.053950
     46 H20        -11.7070     7.4940     2.9940 h1         1 93I       0.053950
     47 H21        -13.8680     8.0410     4.1910 h1         1 93I       0.064700
     48 H22        -12.6250     9.2830     4.3870 h1         1 93I       0.064700
     49 H23        -16.4440    11.1750     2.2270 ha         1 93I       0.214000
     50 H25        -16.4620     7.3240     7.6270 hn         1 93I       0.434000
     51 O01        -18.5420    11.8710     3.4650 o          1 93I      -0.558000
@<TRIPOS>BOND
     1     1     2 ar  
     2     1     9 ar  
     3     1    27 1   
     4     2    10 ar  
     5     2    28 1   
     6     3    21 1   
     7     3    22 1   
     8     3    51 2   
     9     4     5 1   
    10     4    22 1   
    11     4    24 2   
    12     5     6 1   
    13     5    12 2   
    14     6    11 1   
    15     6    23 1   
    16     6    29 1   
    17     7     8 ar  
    18     7    10 ar  
    19     7    23 1   
    20     8     9 ar  
    21     8    30 1   
    22     9    31 1   
    23    10    32 1   
    24    11    33 1   
    25    11    34 1   
    26    11    35 1   
    27    12    13 1   
    28    12    36 1   
    29    13    14 1   
    30    13    15 2   
    31    14    37 1   
    32    14    38 1   
    33    14    39 1   
    34    15    22 1   
    35    15    40 1   
    36    16    21 2   
    37    16    24 1   
    38    16    25 1   
    39    17    18 1   
    40    17    25 1   
    41    17    41 1   
    42    17    42 1   
    43    18    26 1   
    44    18    43 1   
    45    18    44 1   
    46    19    20 1   
    47    19    26 1   
    48    19    45 1   
    49    19    46 1   
    50    20    25 1   
    51    20    47 1   
    52    20    48 1   
    53    21    49 1   
    54    23    50 1   
@<TRIPOS>SUBSTRUCTURE
     1 93I         1 TEMP              0 ****  ****    0 ROOT
