@<TRIPOS>MOLECULE
93I
   51    54     1     0     0
SMALL
bcc


@<TRIPOS>ATOM
      1 C11        -12.7990     4.4330     6.6330 ca         1 93I      -0.142000
      2 C12        -13.3670     4.7630     7.8570 ca         1 93I      -0.117000
      3 C02        -17.6420    11.7020     4.1250 c          1 93I       0.616500
      4 C04        -16.4510    10.3050     5.7420 cc         1 93I       0.178700
      5 C05        -16.3590     9.7950     7.0800 cc         1 93I      -0.135300
      6 C06        -15.2450     8.8200     7.3910 c3         1 93I       0.252800
      7 C08        -14.6950     6.4920     6.8120 ca         1 93I       0.098600
      8 C09        -14.1180     6.1530     5.5870 ca         1 93I      -0.152000
      9 C10        -13.1880     5.1270     5.4960 ca         1 93I      -0.117000
     10 C13        -14.3160     5.7720     7.9460 ca         1 93I      -0.152000
     11 C14        -14.8840     8.7880     8.8670 c3         1 93I      -0.093100
     12 C15        -17.2910    10.1720     7.9950 cd         1 93I      -0.031000
     13 C16        -18.3460    11.0640     7.6710 cd         1 93I      -0.159300
     14 C17        -19.3490    11.4700     8.7050 c3         1 93I      -0.034800
     15 C18        -18.4050    11.5260     6.4010 cc         1 93I      -0.022300
     16 C20        -15.6310    10.4360     3.6030 cd         1 93I       0.484600
     17 C22        -14.6710    10.4930     1.3640 c6         1 93I       0.190800
     18 C23        -13.6070     9.7480     0.5810 c6         1 93I       0.120400
     19 C25        -12.2600     9.8140     2.5360 c6         1 93I       0.120400
     20 C26        -13.5240     9.2530     3.1590 c6         1 93I       0.190800
     21 C27        -16.6490    11.3070     3.2190 cc         1 93I      -0.469200
     22 N03        -17.4850    11.1580     5.4560 n          1 93I      -0.095200
     23 N07        -15.6800     7.5000     6.8910 nu         1 93I      -0.698600
     24 N19        -15.5620     9.9390     4.8500 nd         1 93I      -0.462600
     25 N21        -14.6690    10.0440     2.7450 nh         1 93I      -0.667400
     26 O24        -12.3170     9.9050     1.1230 os         1 93I      -0.405600
     27 H1         -12.0680     3.6380     6.5660 ha         1 93I       0.131000
     28 H2         -13.0850     4.2180     8.7490 ha         1 93I       0.128500
     29 H3         -14.3560     9.1580     6.8440 h1         1 93I       0.054700
     30 H4         -14.4070     6.6970     4.6940 ha         1 93I       0.133500
     31 H5         -12.7610     4.8780     4.5330 ha         1 93I       0.128500
     32 H6         -14.7850     5.9870     8.8970 ha         1 93I       0.133500
     33 H7         -14.6820     9.7970     9.2260 hc         1 93I       0.043033
     34 H8         -15.6760     8.3530     9.4780 hc         1 93I       0.043033
     35 H9         -13.9800     8.2040     9.0290 hc         1 93I       0.043033
     36 H10        -17.2360     9.7920     9.0070 ha         1 93I       0.149000
     37 H11        -19.8890    10.6030     9.0870 hc         1 93I       0.047700
     38 H12        -18.8610    11.9470     9.5560 hc         1 93I       0.047700
     39 H13        -20.0790    12.1690     8.3000 hc         1 93I       0.047700
     40 H14        -19.1710    12.2040     6.0580 h4         1 93I       0.192000
     41 H15        -14.4960    11.5740     1.3040 h1         1 93I       0.064700
     42 H16        -15.6390    10.2950     0.8970 h1         1 93I       0.064700
     43 H17        -13.5820    10.1410    -0.4360 h1         1 93I       0.053950
     44 H18        -13.8830     8.6880     0.5080 h1         1 93I       0.053950
     45 H19        -11.4180     9.1750     2.8130 h1         1 93I       0.053950
     46 H20        -12.0700    10.8080     2.9580 h1         1 93I       0.053950
     47 H21        -13.6580     8.2000     2.8880 h1         1 93I       0.064700
     48 H22        -13.4240     9.2920     4.2410 h1         1 93I       0.064700
     49 H23        -16.7130    11.7170     2.2230 ha         1 93I       0.164000
     50 H25        -16.0620     7.6370     5.9620 hn         1 93I       0.378800
     51 O01        -18.5940    12.4420     3.9120 o          1 93I      -0.633500
@<TRIPOS>BOND
     1     1     2 ar  
     2     1     9 ar  
     3     1    27 1   
     4     2    10 ar  
     5     2    28 1   
     6     3    21 1   
     7     3    22 1   
     8     3    51 2   
     9     4     5 1   
    10     4    22 1   
    11     4    24 2   
    12     5     6 1   
    13     5    12 2   
    14     6    11 1   
    15     6    23 1   
    16     6    29 1   
    17     7     8 ar  
    18     7    10 ar  
    19     7    23 1   
    20     8     9 ar  
    21     8    30 1   
    22     9    31 1   
    23    10    32 1   
    24    11    33 1   
    25    11    34 1   
    26    11    35 1   
    27    12    13 1   
    28    12    36 1   
    29    13    14 1   
    30    13    15 2   
    31    14    37 1   
    32    14    38 1   
    33    14    39 1   
    34    15    22 1   
    35    15    40 1   
    36    16    21 2   
    37    16    24 1   
    38    16    25 1   
    39    17    18 1   
    40    17    25 1   
    41    17    41 1   
    42    17    42 1   
    43    18    26 1   
    44    18    43 1   
    45    18    44 1   
    46    19    20 1   
    47    19    26 1   
    48    19    45 1   
    49    19    46 1   
    50    20    25 1   
    51    20    47 1   
    52    20    48 1   
    53    21    49 1   
    54    23    50 1   
@<TRIPOS>SUBSTRUCTURE
     1 93I         1 TEMP              0 ****  ****    0 ROOT
