@<TRIPOS>MOLECULE
93J
   56    58     1     0     0
SMALL
No Charge or Current Charge


@<TRIPOS>ATOM
      1 C10         -1.9900    -1.7930     0.3090 ca         1 93J      -0.124000
      2 C13          0.3690    -3.2870    -0.1140 ca         1 93J       0.139100
      3 C15         -2.0750    -3.1480    -0.0850 ca         1 93J       0.321000
      4 C20         -2.6450     2.6470     0.9320 ca         1 93J      -0.088000
      5 C21         -2.0660     3.7880     0.3490 ca         1 93J       0.096000
      6 C22         -1.4640     3.6990    -0.9210 ca         1 93J       0.179000
      7 C24         -2.0290     1.3360    -1.0200 ca         1 93J      -0.103000
      8 C01          2.2130    -0.0960     0.6890 c          1 93J       0.613300
      9 C02          3.6940     0.0090     0.8320 ce         1 93J      -0.319200
     10 C03          4.3710     1.1840     0.8660 c2         1 93J      -0.116200
     11 C04          5.8720     1.3420     0.9770 c3         1 93J       0.183000
     12 O01          1.4900     0.8920     0.7190 o          1 93J      -0.586100
     13 N02          6.4790     1.8350    -0.2820 n3         1 93J      -0.708600
     14 C05          7.8940     2.2300    -0.1050 c3         1 93J       0.148100
     15 C06          6.2970     0.9070    -1.4240 c3         1 93J       0.148100
     16 N03         -3.2560    -3.7740    -0.2580 nb         1 93J      -0.692000
     17 C07         -4.3950    -3.0860    -0.0400 ca         1 93J       0.420900
     18 C08         -4.4140    -1.7460     0.3440 ca         1 93J      -0.194000
     19 C09         -3.1950    -1.0730     0.5060 ca         1 93J       0.423000
     20 C11         -0.7170    -1.2080     0.5200 ca         1 93J      -0.096000
     21 C12          0.4640    -1.9430     0.2940 ca         1 93J      -0.046000
     22 C14         -0.8960    -3.8790    -0.2960 ca         1 93J      -0.187000
     23 O02          1.5430    -3.9900    -0.3190 os         1 93J      -0.369100
     24 C16          1.5590    -5.3650    -0.7380 c3         1 93J       0.168600
     25 C18         -5.6800    -1.1080     0.5290 cg         1 93J       0.332000
     26 N04         -6.7180    -0.5980     0.6860 n1         1 93J      -0.468000
     27 N05         -3.1990     0.2890     0.8540 nu         1 93J      -0.979000
     28 C19         -2.6220     1.4150     0.2560 ca         1 93J       0.266000
     29 C23         -1.4480     2.4750    -1.6080 ca         1 93J      -0.125000
     30 Cl1         -2.1000     5.3190     1.2250 cl         1 93J      -0.163000
     31 H1           3.5510    -5.1730    -1.6000 hc         1 93J       0.049367
     32 H2           3.5420    -5.6940     0.1040 hc         1 93J       0.049367
     33 H3           3.0960    -6.8390    -1.1800 hc         1 93J       0.049367
     34 H4          -3.1030     2.7210     1.9140 ha         1 93J       0.140000
     35 H5          -2.0180     0.3930    -1.5600 ha         1 93J       0.131000
     36 H6           4.2380    -0.9340     0.8670 ha         1 93J       0.178000
     37 H7           3.8420     2.1380     0.8070 ha         1 93J       0.209000
     38 H8           6.0800     2.0480     1.7930 h1         1 93J       0.042700
     39 H9           6.3230     0.3820     1.2650 h1         1 93J       0.042700
     40 H10          2.5030    -2.0820     0.4320 hn         1 93J       0.170000
     41 H12          8.2950     2.6650    -1.0310 h1         1 93J       0.033200
     42 H13          7.9930     2.9820     0.6890 h1         1 93J       0.033200
     43 H14          8.5130     1.3630     0.1630 h1         1 93J       0.033200
     44 H15          5.2330     0.7200    -1.6170 h1         1 93J       0.033200
     45 H16          6.7300     1.3310    -2.3400 h1         1 93J       0.033200
     46 H17          6.7860    -0.0560    -1.2280 h1         1 93J       0.033200
     47 H18         -5.3220    -3.6390    -0.1880 h4         1 93J       0.027100
     48 H19         -0.6530    -0.1880     0.8800 ha         1 93J       0.163000
     49 H20         -0.9890    -4.9150    -0.6010 ha         1 93J       0.140000
     50 H21          1.0630    -5.4830    -1.7100 h1         1 93J       0.044200
     51 H22          1.0530    -6.0040    -0.0020 h1         1 93J       0.044200
     52 H23         -3.8870     0.5160     1.5750 hn         1 93J       0.505000
     53 H24         -0.9880     2.4100    -2.5900 ha         1 93J       0.137000
     54 N01          1.7660    -1.3910     0.4760 ns         1 93J      -0.137000
     55 F01         -0.9030     4.7900    -1.4930 f          1 93J      -0.159000
     56 C17          3.0300    -5.7920    -0.8610 c3         1 93J      -0.098100
@<TRIPOS>BOND
     1     1     3 ar  
     2     1    19 ar  
     3     1    20 ar  
     4     2    21 ar  
     5     2    22 ar  
     6     2    23 1   
     7     3    16 ar  
     8     3    22 ar  
     9     4     5 ar  
    10     4    28 ar  
    11     4    34 1   
    12     5     6 ar  
    13     5    30 1   
    14     6    29 ar  
    15     6    55 1   
    16     7    28 ar  
    17     7    29 ar  
    18     7    35 1   
    19     8     9 1   
    20     8    12 2   
    21     8    54 1   
    22     9    10 2   
    23     9    36 1   
    24    10    11 1   
    25    10    37 1   
    26    11    13 1   
    27    11    38 1   
    28    11    39 1   
    29    13    14 1   
    30    13    15 1   
    31    14    41 1   
    32    14    42 1   
    33    14    43 1   
    34    15    44 1   
    35    15    45 1   
    36    15    46 1   
    37    16    17 ar  
    38    17    18 ar  
    39    17    47 1   
    40    18    19 ar  
    41    18    25 1   
    42    19    27 1   
    43    20    21 ar  
    44    20    48 1   
    45    21    54 1   
    46    22    49 1   
    47    23    24 1   
    48    24    50 1   
    49    24    51 1   
    50    24    56 1   
    51    25    26 3   
    52    27    28 1   
    53    27    52 1   
    54    29    53 1   
    55    31    56 1   
    56    32    56 1   
    57    33    56 1   
    58    40    54 1   
@<TRIPOS>SUBSTRUCTURE
     1 93J         1 TEMP              0 ****  ****    0 ROOT
