@<TRIPOS>MOLECULE
93J
   56    58     1     0     0
SMALL
abcg2


@<TRIPOS>ATOM
      1 C10         -2.0200    -1.7610     0.3220 ca         1 93J      -0.124000
      2 C13          0.2390    -3.3780    -0.0510 ca         1 93J       0.139100
      3 C15         -2.1650    -3.1420     0.0550 ca         1 93J       0.321000
      4 C20         -1.8640     2.3570     0.8490 ca         1 93J      -0.088000
      5 C21         -1.0060     3.2790     0.2760 ca         1 93J       0.096000
      6 C22         -0.5900     3.1140    -1.0330 ca         1 93J       0.179000
      7 C24         -1.9270     1.1470    -1.2320 ca         1 93J      -0.103000
      8 C01          2.1430    -0.2730     0.6470 c          1 93J       0.613300
      9 C02          3.6190    -0.1630     0.6340 ce         1 93J      -0.319200
     10 C03          4.2280     1.0090     0.7980 c2         1 93J      -0.116200
     11 C04          5.7100     1.1900     0.8270 c3         1 93J       0.183000
     12 O01          1.4040     0.6740     0.8540 o          1 93J      -0.586100
     13 N02          6.1330     2.2680    -0.0450 n3         1 93J      -0.708600
     14 C05          7.5060     2.6460     0.2160 c3         1 93J       0.148100
     15 C06          5.9370     1.9400    -1.4410 c3         1 93J       0.148100
     16 N03         -3.3640    -3.7780     0.0010 nb         1 93J      -0.692000
     17 C07         -4.4320    -3.0700     0.2120 ca         1 93J       0.420900
     18 C08         -4.4200    -1.6790     0.4460 ca         1 93J      -0.194000
     19 C09         -3.2080    -0.9840     0.4770 ca         1 93J       0.423000
     20 C11         -0.7220    -1.2230     0.4710 ca         1 93J      -0.096000
     21 C12          0.3950    -1.9950     0.2850 ca         1 93J      -0.046000
     22 C14         -1.0120    -3.9280    -0.1420 ca         1 93J      -0.187000
     23 O02          1.3820    -4.0400    -0.2370 os         1 93J      -0.369100
     24 C16          1.3480    -5.4270    -0.5750 c3         1 93J       0.168600
     25 C18         -5.6510    -0.9910     0.5820 cg         1 93J       0.332000
     26 N04         -6.6520    -0.4270     0.6920 n1         1 93J      -0.468000
     27 N05         -3.1980     0.3590     0.6970 nu         1 93J      -0.979000
     28 C19         -2.3230     1.2840     0.0950 ca         1 93J       0.266000
     29 C23         -1.0470     2.0560    -1.7920 ca         1 93J      -0.125000
     30 CL1         -0.4180     4.6150     1.1890 cl         1 93J      -0.163000
     31 H1           3.2350    -5.3400    -1.6200 hc         1 93J       0.049367
     32 H2           3.3760    -5.7680     0.0940 hc         1 93J       0.049367
     33 H3           2.7600    -6.9440    -1.0660 hc         1 93J       0.049367
     34 H4          -2.1630     2.4660     1.8830 ha         1 93J       0.140000
     35 H5          -2.3010     0.3280    -1.8330 ha         1 93J       0.131000
     36 H6           4.2040    -1.0640     0.4740 ha         1 93J       0.178000
     37 H7           3.6330     1.9060     0.9390 ha         1 93J       0.209000
     38 H8           5.9910     1.4560     1.8520 h1         1 93J       0.042700
     39 H9           6.2160     0.2370     0.6000 h1         1 93J       0.042700
     40 H10          2.4140    -2.2380     0.2400 hn         1 93J       0.170000
     41 H12          7.7880     3.4820    -0.4240 h1         1 93J       0.033200
     42 H13          7.6170     2.9660     1.2530 h1         1 93J       0.033200
     43 H14          8.2250     1.8320     0.0360 h1         1 93J       0.033200
     44 H15          4.8880     1.7180    -1.6400 h1         1 93J       0.033200
     45 H16          6.2210     2.7890    -2.0640 h1         1 93J       0.033200
     46 H17          6.5290     1.0710    -1.7690 h1         1 93J       0.033200
     47 H18         -5.3860    -3.5850     0.1830 h4         1 93J       0.027100
     48 H19         -0.5870    -0.1910     0.7380 ha         1 93J       0.163000
     49 H20         -1.1560    -4.9770    -0.3580 ha         1 93J       0.140000
     50 H21          0.7480    -5.5700    -1.4780 h1         1 93J       0.044200
     51 H22          0.8780    -5.9900     0.2360 h1         1 93J       0.044200
     52 H23         -4.0440     0.7600     1.0760 hn         1 93J       0.505000
     53 H24         -0.7250     1.9520    -2.8200 ha         1 93J       0.137000
     54 N01          1.7030    -1.5400     0.3970 ns         1 93J      -0.137000
     55 F01          0.2570     3.9980    -1.5650 f          1 93J      -0.159000
     56 C17          2.7670    -5.8870    -0.8020 c3         1 93J      -0.098100
@<TRIPOS>BOND
     1     1     3 ar  
     2     1    19 ar  
     3     1    20 ar  
     4     2    21 ar  
     5     2    22 ar  
     6     2    23 1   
     7     3    16 ar  
     8     3    22 ar  
     9     4     5 ar  
    10     4    28 ar  
    11     4    34 1   
    12     5     6 ar  
    13     5    30 1   
    14     6    29 ar  
    15     6    55 1   
    16     7    28 ar  
    17     7    29 ar  
    18     7    35 1   
    19     8     9 1   
    20     8    12 2   
    21     8    54 1   
    22     9    10 2   
    23     9    36 1   
    24    10    11 1   
    25    10    37 1   
    26    11    13 1   
    27    11    38 1   
    28    11    39 1   
    29    13    14 1   
    30    13    15 1   
    31    14    41 1   
    32    14    42 1   
    33    14    43 1   
    34    15    44 1   
    35    15    45 1   
    36    15    46 1   
    37    16    17 ar  
    38    17    18 ar  
    39    17    47 1   
    40    18    19 ar  
    41    18    25 1   
    42    19    27 1   
    43    20    21 ar  
    44    20    48 1   
    45    21    54 1   
    46    22    49 1   
    47    23    24 1   
    48    24    50 1   
    49    24    51 1   
    50    24    56 1   
    51    25    26 3   
    52    27    28 1   
    53    27    52 1   
    54    29    53 1   
    55    31    56 1   
    56    32    56 1   
    57    33    56 1   
    58    40    54 1   
@<TRIPOS>SUBSTRUCTURE
     1 93J         1 TEMP              0 ****  ****    0 ROOT
