@<TRIPOS>MOLECULE
93K
   20    20     1     0     0
SMALL
bcc


@<TRIPOS>ATOM
      1 C1           0.8990    -0.1250     0.0200 ca         1 93K      -0.173600
      2 C2           0.3820    -1.4170     0.0010 ca         1 93K      -0.082000
      3 C3          -0.9860    -1.6240     0.0330 ca         1 93K      -0.199000
      4 C4          -1.8870    -0.5600     0.0990 ca         1 93K       0.161600
      5 C5          -1.3730     0.7570     0.1010 ca         1 93K       0.037600
      6 C6          -0.0020     0.9420     0.0580 ca         1 93K      -0.092000
      7 O            2.7480     1.3590     0.0000 o          1 93K      -0.619100
      8 C            2.3520     0.1970    -0.0140 c          1 93K       0.691700
      9 N            3.2120    -0.8350    -0.0630 nt         1 93K      -0.675000
     10 N2          -2.2560     1.8360     0.2130 nv         1 93K      -0.789200
     11 N1          -3.2360    -0.7880     0.2230 nv         1 93K      -0.823200
     12 H1           1.0180    -2.2920    -0.0410 ha         1 93K       0.121000
     13 H2          -1.3710    -2.6370     0.0250 ha         1 93K       0.131000
     14 H3           0.3830     1.9550     0.0550 ha         1 93K       0.153000
     15 H4           2.9270    -1.7960    -0.0700 hn         1 93K       0.312000
     16 H5           4.2020    -0.6540    -0.0820 hn         1 93K       0.312000
     17 H6          -3.0050     1.8280    -0.4670 hn         1 93K       0.366800
     18 H7          -1.7860     2.7270     0.1460 hn         1 93K       0.366800
     19 H8          -3.5590    -1.6960    -0.0680 hn         1 93K       0.399300
     20 H9          -3.8700    -0.0580    -0.0520 hn         1 93K       0.399300
@<TRIPOS>BOND
     1     1     2 ar  
     2     1     6 ar  
     3     1     8 1   
     4     2     3 ar  
     5     2    12 1   
     6     3     4 ar  
     7     3    13 1   
     8     4     5 ar  
     9     4    11 1   
    10     5     6 ar  
    11     5    10 1   
    12     6    14 1   
    13     7     8 2   
    14     8     9 1   
    15     9    15 1   
    16     9    16 1   
    17    10    17 1   
    18    10    18 1   
    19    11    19 1   
    20    11    20 1   
@<TRIPOS>SUBSTRUCTURE
     1 93K         1 TEMP              0 ****  ****    0 ROOT
