@<TRIPOS>MOLECULE
93K
   20    20     1     0     0
SMALL
No Charge or Current Charge


@<TRIPOS>ATOM
      1 C1           0.9110    -0.0930     0.0110 ca         1 93K      -0.173600
      2 C2           0.3900    -1.4060    -0.0470 ca         1 93K      -0.064000
      3 C3          -0.9970    -1.6240    -0.0620 ca         1 93K      -0.181000
      4 C4          -1.8940    -0.5470    -0.0210 ca         1 93K       0.300000
      5 C5          -1.3870     0.7910     0.0280 ca         1 93K       0.176000
      6 C6           0.0060     0.9940     0.0470 ca         1 93K      -0.074000
      7 O            2.8660     1.3040     0.0790 o          1 93K      -0.619100
      8 C            2.4000     0.1770     0.0310 c          1 93K       0.624700
      9 N            3.2430    -0.8760    -0.0050 nt         1 93K      -0.608000
     10 N2          -2.2210     1.9070     0.0480 nv         1 93K      -1.038000
     11 N1          -3.2500    -0.8260    -0.0180 nv         1 93K      -1.072000
     12 H1           1.0480    -2.2710    -0.0780 ha         1 93K       0.103000
     13 H2          -1.3740    -2.6430    -0.1010 ha         1 93K       0.113000
     14 H3           0.3890     2.0100     0.0880 ha         1 93K       0.135000
     15 H4           2.8810    -1.8160    -0.0440 hn         1 93K       0.312000
     16 H5           4.2380    -0.7090     0.0090 hn         1 93K       0.312000
     17 H6          -3.1960     1.8010    -0.2220 hn         1 93K       0.422000
     18 H7          -1.8200     2.8390    -0.0480 hn         1 93K       0.422000
     19 H8          -3.5500    -1.7880     0.1230 hn         1 93K       0.454500
     20 H9          -3.8920    -0.1040     0.2990 hn         1 93K       0.454500
@<TRIPOS>BOND
     1     1     2 ar  
     2     1     6 ar  
     3     1     8 1   
     4     2     3 ar  
     5     2    12 1   
     6     3     4 ar  
     7     3    13 1   
     8     4     5 ar  
     9     4    11 1   
    10     5     6 ar  
    11     5    10 1   
    12     6    14 1   
    13     7     8 2   
    14     8     9 1   
    15     9    15 1   
    16     9    16 1   
    17    10    17 1   
    18    10    18 1   
    19    11    19 1   
    20    11    20 1   
@<TRIPOS>SUBSTRUCTURE
     1 93K         1 TEMP              0 ****  ****    0 ROOT
