@<TRIPOS>MOLECULE
93L
   62    67     1     0     0
SMALL
abcg2


@<TRIPOS>ATOM
      1 C1          14.0310    25.3210    32.5680 cc         1 93L       0.366800
      2 C2          15.1730    23.7060    33.4460 cc         1 93L      -0.185000
      3 C3          14.2260    21.9300    31.6780 cc         1 93L       0.333500
      4 N6          12.4040    20.8700    30.4680 n          1 93L      -0.392800
      5 C7          18.3280    20.8900    35.6380 c6         1 93L      -0.094400
      6 C8          18.8380    19.5140    36.0330 c6         1 93L       0.167300
      7 C9          16.6220    18.6140    36.0800 c6         1 93L       0.167300
      8 C10         16.0180    19.9540    35.6900 c6         1 93L      -0.094400
      9 C11         18.3780    17.5280    37.2830 c3         1 93L       0.152100
     10 C12         13.7360    20.9660    30.6310 c          1 93L       0.530600
     11 C13         11.3900    21.3220    31.4010 c6         1 93L       0.040700
     12 C14         10.5340    22.3810    30.7170 c6         1 93L      -0.037100
     13 C15         10.0730    21.9040    29.3670 ca         1 93L      -0.057300
     14 C16          9.0180    22.5440    28.7180 ca         1 93L      -0.105000
     15 C19         10.2650    20.4110    27.4840 ca         1 93L      -0.101000
     16 C20         10.6990    20.8280    28.7400 ca         1 93L      -0.095300
     17 C21         11.8310    20.0720    29.4020 c6         1 93L       0.139000
     18 C22         11.3660    18.7590    30.0150 c6         1 93L       0.098000
     19 C23         10.5140    20.1660    31.8820 c          1 93L       0.554000
     20 N7          10.5490    19.0260    31.1800 ns         1 93L      -0.499900
     21 C18          9.2160    21.0530    26.8470 ca         1 93L      -0.109000
     22 C17          8.5890    22.1260    27.4690 ca         1 93L      -0.099000
     23 O           14.5500    20.3540    29.9610 o          1 93L      -0.575100
     24 N3          13.7880    23.1500    31.5430 nd         1 93L      -0.499800
     25 N2          14.2960    23.9950    32.4460 na         1 93L       0.143000
     26 C           13.1110    26.0560    31.6760 c3         1 93L      -0.096400
     27 C4          15.1450    21.4730    32.6450 cd         1 93L      -0.300000
     28 C5          15.6470    22.3610    33.5810 cc         1 93L       0.439000
     29 N1          15.4290    24.7870    34.1370 nd         1 93L      -0.087000
     30 N           14.7140    25.7870    33.5830 nd         1 93L      -0.370700
     31 N4          16.5140    22.0920    34.5540 nu         1 93L      -0.927200
     32 C6          17.0170    20.7710    34.8750 c6         1 93L       0.229500
     33 N5          17.8560    18.7920    36.8200 n3         1 93L      -0.716600
     34 H1          19.0780    21.3970    35.0270 hc         1 93L       0.059200
     35 H2          18.1750    21.4930    36.5390 hc         1 93L       0.059200
     36 H3          19.1160    18.9530    35.1230 h1         1 93L       0.036450
     37 H4          19.7510    19.6210    36.6230 h1         1 93L       0.036450
     38 H5          15.9130    18.0650    36.7040 h1         1 93L       0.036450
     39 H6          16.7790    18.0060    35.1710 h1         1 93L       0.036450
     40 H7          15.7500    20.5140    36.5900 hc         1 93L       0.059200
     41 H8          15.1000    19.7880    35.1220 hc         1 93L       0.059200
     42 H9          17.6470    17.0310    37.9220 h1         1 93L       0.033033
     43 H10         18.6320    16.8360    36.4640 h1         1 93L       0.033033
     44 H11         19.2820    17.6880    37.8740 h1         1 93L       0.033033
     45 H12         11.8520    21.7380    32.2930 h1         1 93L       0.096700
     46 H13         11.1370    23.2870    30.6120 hc         1 93L       0.076700
     47 H14          9.6820    22.6450    31.3450 hc         1 93L       0.076700
     48 H15          8.5260    23.3780    29.2050 ha         1 93L       0.116000
     49 H16         10.7590    19.5760    26.9990 ha         1 93L       0.111000
     50 H17         12.6030    19.8570    28.6640 h1         1 93L       0.101700
     51 H18         10.7800    18.1910    29.2920 h1         1 93L       0.054700
     52 H19         12.2360    18.1550    30.2850 h1         1 93L       0.054700
     53 H20          9.9740    18.2700    31.5250 hn         1 93L       0.320500
     54 H21          8.8920    20.7210    25.8690 ha         1 93L       0.116000
     55 H22          7.7670    22.6340    26.9820 ha         1 93L       0.116000
     56 H23         13.0500    27.0950    31.9910 hc         1 93L       0.063033
     57 H24         13.4540    26.0260    30.6420 hc         1 93L       0.063033
     58 H25         12.1090    25.6260    31.7040 hc         1 93L       0.063033
     59 H26         15.4230    20.4290    32.6480 ha         1 93L       0.145000
     60 H27         16.7320    22.8410    35.1960 hn         1 93L       0.519000
     61 H28         17.2210    20.2490    33.9330 h1         1 93L       0.064700
     62 O1           9.8000    20.3300    32.8600 o          1 93L      -0.561000
@<TRIPOS>BOND
     1     1    25 1   
     2     1    26 1   
     3     1    30 2   
     4     2    25 1   
     5     2    28 1   
     6     2    29 2   
     7     3    10 1   
     8     3    24 2   
     9     3    27 1   
    10     4    10 1   
    11     4    11 1   
    12     4    17 1   
    13     5     6 1   
    14     5    32 1   
    15     5    34 1   
    16     5    35 1   
    17     6    33 1   
    18     6    36 1   
    19     6    37 1   
    20     7     8 1   
    21     7    33 1   
    22     7    38 1   
    23     7    39 1   
    24     8    32 1   
    25     8    40 1   
    26     8    41 1   
    27     9    33 1   
    28     9    42 1   
    29     9    43 1   
    30     9    44 1   
    31    10    23 2   
    32    11    12 1   
    33    11    19 1   
    34    11    45 1   
    35    12    13 1   
    36    12    46 1   
    37    12    47 1   
    38    13    14 ar  
    39    13    16 ar  
    40    14    22 ar  
    41    14    48 1   
    42    15    16 ar  
    43    15    21 ar  
    44    15    49 1   
    45    16    17 1   
    46    17    18 1   
    47    17    50 1   
    48    18    20 1   
    49    18    51 1   
    50    18    52 1   
    51    19    20 1   
    52    19    62 2   
    53    20    53 1   
    54    21    22 ar  
    55    21    54 1   
    56    22    55 1   
    57    24    25 1   
    58    26    56 1   
    59    26    57 1   
    60    26    58 1   
    61    27    28 2   
    62    27    59 1   
    63    28    31 1   
    64    29    30 1   
    65    31    32 1   
    66    31    60 1   
    67    32    61 1   
@<TRIPOS>SUBSTRUCTURE
     1 93L         1 TEMP              0 ****  ****    0 ROOT
