@<TRIPOS>MOLECULE
93L
   62    67     1     0     0
SMALL
No Charge or Current Charge


@<TRIPOS>ATOM
      1 C1          13.5340    25.1690    33.2330 cc         1 93L       0.366800
      2 C2          14.8700    23.5750    33.8700 cc         1 93L      -0.185000
      3 C3          13.6020    21.6660    32.4030 cc         1 93L       0.333500
      4 N6          11.7390    20.6760    30.9350 n          1 93L      -0.392800
      5 C7          18.6520    21.0170    35.2680 c6         1 93L      -0.094400
      6 C8          19.3980    19.6830    35.5050 c6         1 93L       0.167300
      7 C9          17.2950    18.5630    36.1380 c6         1 93L       0.167300
      8 C10         16.4970    19.8680    35.9150 c6         1 93L      -0.094400
      9 C11         19.4580    17.6160    36.8470 c3         1 93L       0.152100
     10 C12         12.9990    20.5120    31.5930 c          1 93L       0.530600
     11 C13         10.6310    21.6170    31.3120 c6         1 93L       0.040700
     12 C14         10.4670    22.6250    30.1420 c6         1 93L      -0.037100
     13 C15         10.4670    21.9600    28.7600 ca         1 93L      -0.057300
     14 C16         10.0710    22.7030    27.6320 ca         1 93L      -0.105000
     15 C19         10.8920    20.0340    27.3230 ca         1 93L      -0.101000
     16 C20         10.8840    20.6170    28.6050 ca         1 93L      -0.095300
     17 C21         11.3090    19.7840    29.8250 c6         1 93L       0.139000
     18 C22         10.1420    18.8800    30.2970 c6         1 93L       0.098000
     19 C23          9.2830    20.8830    31.5900 c          1 93L       0.554000
     20 N7           9.1140    19.6250    31.0490 ns         1 93L      -0.499900
     21 C18         10.4930    20.7810    26.2020 ca         1 93L      -0.109000
     22 C17         10.0820    22.1150    26.3560 ca         1 93L      -0.099000
     23 O           13.5710    19.4300    31.4610 o          1 93L      -0.575100
     24 N3          13.0910    22.9100    32.3060 nd         1 93L      -0.499800
     25 N2          13.7830    23.8170    33.0820 na         1 93L       0.143000
     26 C           12.4230    25.9230    32.5580 c3         1 93L      -0.096400
     27 C4          14.7190    21.3140    33.1660 cd         1 93L      -0.300000
     28 C5          15.3770    22.2500    33.9180 cc         1 93L       0.439000
     29 N1          15.2700    24.6830    34.4680 nd         1 93L      -0.087000
     30 N           14.4240    25.6910    34.0660 nd         1 93L      -0.370700
     31 N4          16.4750    22.0280    34.7140 nu         1 93L      -0.927200
     32 C6          17.1900    20.7510    34.8540 c6         1 93L       0.229500
     33 N5          18.7040    18.8470    36.5230 n3         1 93L      -0.716600
     34 H1          19.1670    21.5930    34.4890 hc         1 93L       0.059200
     35 H2          18.6860    21.6180    36.1870 hc         1 93L       0.059200
     36 H3          19.4730    19.1390    34.5510 h1         1 93L       0.036450
     37 H4          20.4240    19.9070    35.8300 h1         1 93L       0.036450
     38 H5          16.7960    17.9760    36.9230 h1         1 93L       0.036450
     39 H6          17.2650    17.9620    35.2170 h1         1 93L       0.036450
     40 H7          16.4150    20.4130    36.8650 hc         1 93L       0.059200
     41 H8          15.4740    19.6250    35.6010 hc         1 93L       0.059200
     42 H9          18.9570    17.0540    37.6470 h1         1 93L       0.033033
     43 H10         19.5400    16.9640    35.9680 h1         1 93L       0.033033
     44 H11         20.4720    17.8610    37.1910 h1         1 93L       0.033033
     45 H12         10.8340    22.1430    32.2510 h1         1 93L       0.096700
     46 H13         11.2920    23.3480    30.1760 hc         1 93L       0.076700
     47 H14          9.5480    23.2110    30.2830 hc         1 93L       0.076700
     48 H15          9.7570    23.7380    27.7430 ha         1 93L       0.116000
     49 H16         11.2070    19.0010    27.1930 ha         1 93L       0.111000
     50 H17         12.1410    19.1380    29.5100 h1         1 93L       0.101700
     51 H18          9.6750    18.3820    29.4360 h1         1 93L       0.054700
     52 H19         10.5420    18.0980    30.9580 h1         1 93L       0.054700
     53 H20          8.2550    19.1480    31.2950 hn         1 93L       0.320500
     54 H21         10.5010    20.3250    25.2140 ha         1 93L       0.116000
     55 H22          9.7750    22.6930    25.4880 ha         1 93L       0.116000
     56 H23         12.4290    26.9800    32.8480 hc         1 93L       0.063033
     57 H24         12.5280    25.8680    31.4680 hc         1 93L       0.063033
     58 H25         11.4490    25.5000    32.8290 hc         1 93L       0.063033
     59 H26         15.0700    20.2920    33.1780 ha         1 93L       0.145000
     60 H27         16.8240    22.8580    35.1940 hn         1 93L       0.519000
     61 H28         17.2040    20.2090    33.8950 h1         1 93L       0.064700
     62 O1           8.4830    21.2850    32.4210 o          1 93L      -0.561000
@<TRIPOS>BOND
     1     1    25 1   
     2     1    26 1   
     3     1    30 2   
     4     2    25 1   
     5     2    28 1   
     6     2    29 2   
     7     3    10 1   
     8     3    24 2   
     9     3    27 1   
    10     4    10 1   
    11     4    11 1   
    12     4    17 1   
    13     5     6 1   
    14     5    32 1   
    15     5    34 1   
    16     5    35 1   
    17     6    33 1   
    18     6    36 1   
    19     6    37 1   
    20     7     8 1   
    21     7    33 1   
    22     7    38 1   
    23     7    39 1   
    24     8    32 1   
    25     8    40 1   
    26     8    41 1   
    27     9    33 1   
    28     9    42 1   
    29     9    43 1   
    30     9    44 1   
    31    10    23 2   
    32    11    12 1   
    33    11    19 1   
    34    11    45 1   
    35    12    13 1   
    36    12    46 1   
    37    12    47 1   
    38    13    14 ar  
    39    13    16 ar  
    40    14    22 ar  
    41    14    48 1   
    42    15    16 ar  
    43    15    21 ar  
    44    15    49 1   
    45    16    17 1   
    46    17    18 1   
    47    17    50 1   
    48    18    20 1   
    49    18    51 1   
    50    18    52 1   
    51    19    20 1   
    52    19    62 2   
    53    20    53 1   
    54    21    22 ar  
    55    21    54 1   
    56    22    55 1   
    57    24    25 1   
    58    26    56 1   
    59    26    57 1   
    60    26    58 1   
    61    27    28 2   
    62    27    59 1   
    63    28    31 1   
    64    29    30 1   
    65    31    32 1   
    66    31    60 1   
    67    32    61 1   
@<TRIPOS>SUBSTRUCTURE
     1 93L         1 TEMP              0 ****  ****    0 ROOT
