@<TRIPOS>MOLECULE
93N
   52    54     1     0     0
SMALL
bcc


@<TRIPOS>ATOM
      1 N1          -5.5030     0.1790    -0.0610 nb         1 93N      -0.655000
      2 C2          -4.6710     1.2070     0.0650 cp         1 93N       0.494800
      3 C3          -5.1590     2.5090     0.2430 ca         1 93N      -0.227300
      4 C4          -6.5210     2.7270     0.2830 ca         1 93N      -0.089000
      5 C5          -7.3880     1.6510     0.1510 ca         1 93N      -0.211300
      6 C6          -6.8090     0.4040    -0.0170 ca         1 93N       0.512300
      7 C7          -3.2270     0.9010     0.0160 cp         1 93N      -0.205500
      8 C8          -2.7970    -0.4250    -0.0480 ca         1 93N       0.001000
      9 C9          -1.4550    -0.7490    -0.0900 ca         1 93N      -0.250300
     10 C10         -0.4840     0.2670    -0.0740 ca         1 93N       0.217100
     11 C11         -0.9050     1.5930    -0.0140 ca         1 93N      -0.242000
     12 C12         -2.2550     1.8960     0.0310 ca         1 93N      -0.039000
     13 O13          0.7920    -0.1130    -0.1180 os         1 93N      -0.308900
     14 C14          1.8180     0.8750    -0.1150 c3         1 93N       0.142400
     15 C15          3.1560     0.1690    -0.1710 c3         1 93N      -0.084400
     16 C16          4.2840     1.1930    -0.1970 c3         1 93N       0.172800
     17 N17          5.6000     0.5890    -0.2680 n3         1 93N      -0.717600
     18 C18         -7.6450    -0.7590    -0.1580 cg         1 93N       0.127800
     19 N19         -8.3190    -1.6850    -0.2690 n1         1 93N      -0.338800
     20 C20         -1.0210    -2.1810    -0.1550 c3         1 93N       0.735200
     21 F21         -0.3120    -2.4460    -1.2610 f          1 93N      -0.232967
     22 F22         -0.2570    -2.5280     0.8900 f          1 93N      -0.232967
     23 F23         -2.0620    -3.0220    -0.1600 f          1 93N      -0.232967
     24 C24          7.3680    -0.6720     0.8490 c6         1 93N       0.164300
     25 N25          8.3620     0.2880     0.4160 n3         1 93N      -0.719600
     26 C26          7.9570     0.8910    -0.8370 c6         1 93N       0.164300
     27 C27          6.5990     1.5520    -0.6960 c6         1 93N       0.164300
     28 C28          6.0090    -0.0130     0.9880 c6         1 93N       0.164300
     29 C29          9.6780    -0.2990     0.3300 c3         1 93N       0.154100
     30 H3          -4.4870     3.3470     0.3540 ha         1 93N       0.144000
     31 H4          -6.9080     3.7270     0.4210 ha         1 93N       0.145000
     32 H5          -8.4610     1.7720     0.1780 ha         1 93N       0.158000
     33 H8          -3.5430    -1.2070    -0.0610 ha         1 93N       0.177000
     34 H11         -0.1940     2.4060    -0.0020 ha         1 93N       0.143000
     35 H12         -2.5270     2.9410     0.0750 ha         1 93N       0.132000
     36 H14          1.6980     1.5410    -0.9760 h1         1 93N       0.038200
     37 H14A         1.7480     1.4850     0.7920 h1         1 93N       0.038200
     38 H15          3.2460    -0.4920     0.6940 hc         1 93N       0.069200
     39 H15A         3.2140    -0.4540    -1.0670 hc         1 93N       0.069200
     40 H16          4.1580     1.8220    -1.0830 h1         1 93N       0.028700
     41 H16A         4.1960     1.8680     0.6720 h1         1 93N       0.028700
     42 H24          7.2900    -1.5220     0.1470 h1         1 93N       0.038950
     43 H24A         7.6660    -1.0840     1.8170 h1         1 93N       0.038950
     44 H26          8.6920     1.6450    -1.1280 h1         1 93N       0.038950
     45 H26A         7.9130     0.1460    -1.6520 h1         1 93N       0.038950
     46 H27          6.3020     1.9660    -1.6620 h1         1 93N       0.038200
     47 H27A         6.6780     2.3970     0.0100 h1         1 93N       0.038200
     48 H28          6.0540     0.7380     1.7960 h1         1 93N       0.038200
     49 H28A         5.2860    -0.7700     1.2940 h1         1 93N       0.038200
     50 H29          9.7440    -1.1190    -0.4020 h1         1 93N       0.030700
     51 H29A        10.4080     0.4600     0.0430 h1         1 93N       0.030700
     52 H29B         9.9750    -0.6970     1.3020 h1         1 93N       0.030700
@<TRIPOS>BOND
     1     1     2 ar  
     2     1     6 ar  
     3     2     3 ar  
     4     2     7 1   
     5     3     4 ar  
     6     3    30 1   
     7     4     5 ar  
     8     4    31 1   
     9     5     6 ar  
    10     5    32 1   
    11     6    18 1   
    12     7     8 ar  
    13     7    12 ar  
    14     8     9 ar  
    15     8    33 1   
    16     9    10 ar  
    17     9    20 1   
    18    10    11 ar  
    19    10    13 1   
    20    11    12 ar  
    21    11    34 1   
    22    12    35 1   
    23    13    14 1   
    24    14    15 1   
    25    14    36 1   
    26    14    37 1   
    27    15    16 1   
    28    15    38 1   
    29    15    39 1   
    30    16    17 1   
    31    16    40 1   
    32    16    41 1   
    33    17    27 1   
    34    17    28 1   
    35    18    19 3   
    36    20    21 1   
    37    20    22 1   
    38    20    23 1   
    39    24    25 1   
    40    24    28 1   
    41    24    42 1   
    42    24    43 1   
    43    25    26 1   
    44    25    29 1   
    45    26    27 1   
    46    26    44 1   
    47    26    45 1   
    48    27    46 1   
    49    27    47 1   
    50    28    48 1   
    51    28    49 1   
    52    29    50 1   
    53    29    51 1   
    54    29    52 1   
@<TRIPOS>SUBSTRUCTURE
     1 93N         1 TEMP              0 ****  ****    0 ROOT
