@<TRIPOS>MOLECULE
93N
   52    54     1     0     0
SMALL
No Charge or Current Charge


@<TRIPOS>ATOM
      1 N1          -5.6510     0.1720    -0.3050 nb         1 93N      -0.655000
      2 C2          -4.8300     1.1870     0.0480 cp         1 93N       0.429500
      3 C3          -5.3520     2.4530     0.4170 ca         1 93N      -0.144000
      4 C4          -6.7390     2.6730     0.4060 ca         1 93N      -0.071000
      5 C5          -7.5730     1.6110     0.0250 ca         1 93N      -0.128000
      6 C6          -6.9940     0.3760    -0.3210 ca         1 93N       0.447000
      7 C7          -3.3560     0.8900     0.0380 cp         1 93N      -0.205500
      8 C8          -2.8740    -0.4410     0.1630 ca         1 93N       0.019000
      9 C9          -1.4910    -0.7370     0.1570 ca         1 93N      -0.250300
     10 C10         -0.5630     0.3160     0.0180 ca         1 93N       0.217100
     11 C11         -1.0240     1.6410    -0.1130 ca         1 93N      -0.224000
     12 C12         -2.3980     1.9230    -0.1050 ca         1 93N      -0.021000
     13 O13          0.7860     0.0160     0.0130 os         1 93N      -0.332100
     14 C14          1.8030     1.0210    -0.1200 c3         1 93N       0.165600
     15 C15          3.1660     0.3070    -0.0790 c3         1 93N      -0.084400
     16 C16          4.3480     1.2910    -0.2070 c3         1 93N       0.172800
     17 N17          5.6790     0.6470    -0.3280 n3         1 93N      -0.717600
     18 C18         -7.8310    -0.7370    -0.7110 cg         1 93N       0.217000
     19 N19         -8.5180    -1.6310    -1.0240 n1         1 93N      -0.428000
     20 C20         -0.9990    -2.1850     0.2990 c3         1 93N       0.371300
     21 F21         -0.2730    -2.5750    -0.7740 f          1 93N      -0.111667
     22 F22         -0.2140    -2.3420     1.3900 f          1 93N      -0.111667
     23 F23         -2.0070    -3.0780     0.4230 f          1 93N      -0.111667
     24 C24          7.4890    -0.8150     0.7070 c6         1 93N       0.164300
     25 N25          8.5550     0.1750     0.3670 n3         1 93N      -0.719600
     26 C26          8.1530     0.9630    -0.8370 c6         1 93N       0.164300
     27 C27          6.7520     1.6340    -0.6650 c6         1 93N       0.164300
     28 C28          6.0850    -0.1480     0.8760 c6         1 93N       0.164300
     29 C29          9.8890    -0.4450     0.2270 c3         1 93N       0.154100
     30 H3          -4.6900     3.2550     0.7250 ha         1 93N       0.126000
     31 H4          -7.1550     3.6390     0.6880 ha         1 93N       0.127000
     32 H5          -8.6520     1.7380     0.0020 ha         1 93N       0.140000
     33 H8          -3.5950    -1.2490     0.2760 ha         1 93N       0.159000
     34 H11         -0.3320     2.4700    -0.2280 ha         1 93N       0.125000
     35 H12         -2.7120     2.9560    -0.2280 ha         1 93N       0.114000
     36 H14          1.6980     1.5560    -1.0730 h1         1 93N       0.038200
     37 H14A         1.7440     1.7450     0.7020 h1         1 93N       0.038200
     38 H15          3.2410    -0.2470     0.8630 hc         1 93N       0.069200
     39 H15A         3.2140    -0.4220    -0.8960 hc         1 93N       0.069200
     40 H16          4.1700     1.9070    -1.1000 h1         1 93N       0.028700
     41 H16A         4.3380     1.9700     0.6570 h1         1 93N       0.028700
     42 H24          7.4180    -1.5790    -0.0820 h1         1 93N       0.038950
     43 H24A         7.7410    -1.3410     1.6400 h1         1 93N       0.038950
     44 H26          8.8950     1.7480    -1.0440 h1         1 93N       0.038950
     45 H26A         8.1200     0.3110    -1.7220 h1         1 93N       0.038950
     46 H27          6.5030     2.1630    -1.5960 h1         1 93N       0.038200
     47 H27A         6.8250     2.3950     0.1260 h1         1 93N       0.038200
     48 H28          6.1110     0.5000     1.7650 h1         1 93N       0.038200
     49 H28A         5.3570    -0.9460     1.0800 h1         1 93N       0.038200
     50 H29          9.9010    -1.1670    -0.6000 h1         1 93N       0.030700
     51 H29A        10.6530     0.3190     0.0270 h1         1 93N       0.030700
     52 H29B        10.1710    -0.9720     1.1480 h1         1 93N       0.030700
@<TRIPOS>BOND
     1     1     2 ar  
     2     1     6 ar  
     3     2     3 ar  
     4     2     7 1   
     5     3     4 ar  
     6     3    30 1   
     7     4     5 ar  
     8     4    31 1   
     9     5     6 ar  
    10     5    32 1   
    11     6    18 1   
    12     7     8 ar  
    13     7    12 ar  
    14     8     9 ar  
    15     8    33 1   
    16     9    10 ar  
    17     9    20 1   
    18    10    11 ar  
    19    10    13 1   
    20    11    12 ar  
    21    11    34 1   
    22    12    35 1   
    23    13    14 1   
    24    14    15 1   
    25    14    36 1   
    26    14    37 1   
    27    15    16 1   
    28    15    38 1   
    29    15    39 1   
    30    16    17 1   
    31    16    40 1   
    32    16    41 1   
    33    17    27 1   
    34    17    28 1   
    35    18    19 3   
    36    20    21 1   
    37    20    22 1   
    38    20    23 1   
    39    24    25 1   
    40    24    28 1   
    41    24    42 1   
    42    24    43 1   
    43    25    26 1   
    44    25    29 1   
    45    26    27 1   
    46    26    44 1   
    47    26    45 1   
    48    27    46 1   
    49    27    47 1   
    50    28    48 1   
    51    28    49 1   
    52    29    50 1   
    53    29    51 1   
    54    29    52 1   
@<TRIPOS>SUBSTRUCTURE
     1 93N         1 TEMP              0 ****  ****    0 ROOT
