@<TRIPOS>MOLECULE
93O
   62    64     1     0     0
SMALL
No Charge or Current Charge


@<TRIPOS>ATOM
      1 C1          -3.3110    -0.5770     1.9460 ca         1 93O       0.437300
      2 C2          -2.4390    -0.2480     0.8980 ca         1 93O      -0.191600
      3 C3          -1.1300     0.2310     1.1600 cp         1 93O       0.083000
      4 C4          -0.7890     0.3450     2.5370 ca         1 93O      -0.189600
      5 C5          -1.7170    -0.0020     3.5330 ca         1 93O       0.435300
      6 C6          -1.3970     0.0670     5.0170 c3         1 93O      -0.157400
      7 C8           2.9400     0.5200     2.4470 c3         1 93O       0.198800
      8 C9           3.7570    -0.1740     1.3840 c2         1 93O      -0.237200
      9 C11          4.8490    -0.2970    -0.9090 ca         1 93O      -0.070800
     10 C14          6.2810    -1.4830    -3.0390 ca         1 93O      -0.103000
     11 C15          5.8700    -2.2630    -1.9460 ca         1 93O      -0.110500
     12 C16          5.1560    -1.6750    -0.8860 ca         1 93O      -0.097000
     13 C17         -0.1860     0.5830     0.0520 cp         1 93O      -0.060000
     14 C18          0.2370     1.9190    -0.1490 ca         1 93O      -0.020000
     15 C19          1.1350     2.2520    -1.1910 ca         1 93O      -0.173200
     16 C20          1.6100     1.2290    -2.0450 ca         1 93O      -0.028000
     17 O4          -2.8670     0.6130    -1.2930 o          1 93O      -0.469000
     18 C23         -2.8500    -0.3450    -0.5330 c          1 93O       0.613700
     19 O5          -3.2480    -1.6070    -0.8810 os         1 93O      -0.430100
     20 C24         -3.6990    -1.8280    -2.2320 c3         1 93O       0.162600
     21 C25         -4.1440    -3.3020    -2.3660 c3         1 93O       0.154600
     22 O6          -5.3570    -3.4920    -1.6090 os         1 93O      -0.447000
     23 C26         -5.8720    -4.8330    -1.6370 c3         1 93O       0.143900
     24 C22          0.3110    -0.4210    -0.8120 ca         1 93O      -0.046000
     25 C21          1.1990    -0.1000    -1.8500 ca         1 93O      -0.124000
     26 N1           1.5800     3.6680    -1.3860 no         1 93O       0.694200
     27 O3           1.1180     4.5360    -0.6340 o          1 93O      -0.398500
     28 O2           2.4120     3.9030    -2.2720 o          1 93O      -0.398500
     29 N           -2.9540    -0.4550     3.2410 nb         1 93O      -0.695000
     30 C           -4.7330    -1.0580     1.7130 c3         1 93O      -0.161400
     31 C7           0.5900     0.8190     2.8780 c          1 93O       0.618700
     32 O            0.8040     1.7060     3.6930 o          1 93O      -0.471000
     33 O1           1.5770     0.1410     2.2170 os         1 93O      -0.443100
     34 C10          4.0810     0.3650     0.1860 ce         1 93O      -0.134200
     35 C13          5.9750    -0.1130    -3.0730 ca         1 93O      -0.110500
     36 C12          5.2620     0.4750    -2.0140 ca         1 93O      -0.097000
     37 H1          -1.3360     1.1080     5.3530 hc         1 93O       0.065367
     38 H2          -2.1630    -0.4310     5.6230 hc         1 93O       0.065367
     39 H3          -0.4410    -0.4200     5.2370 hc         1 93O       0.065367
     40 H4           3.2700     0.2160     3.4500 h1         1 93O       0.065200
     41 H5           3.0690     1.6080     2.3570 h1         1 93O       0.065200
     42 H6           4.0580    -1.1830     1.6610 ha         1 93O       0.182000
     43 H7           6.8320    -1.9390    -3.8580 ha         1 93O       0.115000
     44 H8           6.1020    -3.3250    -1.9200 ha         1 93O       0.117000
     45 H9           4.8410    -2.3030    -0.0590 ha         1 93O       0.115500
     46 H10         -0.1450     2.6910     0.5160 ha         1 93O       0.159000
     47 H11          2.3010     1.4510    -2.8560 ha         1 93O       0.154000
     48 H12         -4.5430    -1.1710    -2.4830 h1         1 93O       0.060700
     49 H13         -2.8880    -1.6330    -2.9460 h1         1 93O       0.060700
     50 H14         -4.3160    -3.5270    -3.4270 h1         1 93O       0.034700
     51 H15         -3.3430    -3.9590    -2.0010 h1         1 93O       0.034700
     52 H16         -6.1060    -5.1410    -2.6640 h1         1 93O       0.031367
     53 H17         -5.1430    -5.5400    -1.2190 h1         1 93O       0.031367
     54 H18         -6.7920    -4.9010    -1.0420 h1         1 93O       0.031367
     55 H19          0.0080    -1.4560    -0.6670 ha         1 93O       0.130000
     56 H20          1.5760    -0.8840    -2.5030 ha         1 93O       0.127000
     57 H21         -5.2440    -0.4370     0.9680 hc         1 93O       0.066367
     58 H22         -4.7390    -2.0930     1.3550 hc         1 93O       0.066367
     59 H23         -5.3310    -1.0210     2.6310 hc         1 93O       0.066367
     60 H24          3.7580     1.3830    -0.0420 ha         1 93O       0.179000
     61 H25          6.2890     0.4930    -3.9190 ha         1 93O       0.117000
     62 H26          5.0310     1.5380    -2.0540 ha         1 93O       0.115500
@<TRIPOS>BOND
     1     1     2 ar  
     2     1    29 ar  
     3     1    30 1   
     4     2     3 ar  
     5     2    18 1   
     6     3     4 ar  
     7     3    13 1   
     8     4     5 ar  
     9     4    31 1   
    10     5     6 1   
    11     5    29 ar  
    12     6    37 1   
    13     6    38 1   
    14     6    39 1   
    15     7     8 1   
    16     7    33 1   
    17     7    40 1   
    18     7    41 1   
    19     8    34 2   
    20     8    42 1   
    21     9    12 ar  
    22     9    34 1   
    23     9    36 ar  
    24    10    11 ar  
    25    10    35 ar  
    26    10    43 1   
    27    11    12 ar  
    28    11    44 1   
    29    12    45 1   
    30    13    14 ar  
    31    13    24 ar  
    32    14    15 ar  
    33    14    46 1   
    34    15    16 ar  
    35    15    26 1   
    36    16    25 ar  
    37    16    47 1   
    38    17    18 2   
    39    18    19 1   
    40    19    20 1   
    41    20    21 1   
    42    20    48 1   
    43    20    49 1   
    44    21    22 1   
    45    21    50 1   
    46    21    51 1   
    47    22    23 1   
    48    23    52 1   
    49    23    53 1   
    50    23    54 1   
    51    24    25 ar  
    52    24    55 1   
    53    25    56 1   
    54    26    27 1   
    55    26    28 1   
    56    30    57 1   
    57    30    58 1   
    58    30    59 1   
    59    31    32 2   
    60    31    33 1   
    61    34    60 1   
    62    35    36 ar  
    63    35    61 1   
    64    36    62 1   
@<TRIPOS>SUBSTRUCTURE
     1 93O         1 TEMP              0 ****  ****    0 ROOT
