@<TRIPOS>MOLECULE
93O
   62    64     1     0     0
SMALL
abcg2


@<TRIPOS>ATOM
      1 C1          -3.3490    -0.3150     1.7630 ca         1 93O       0.437300
      2 C2          -2.3740    -0.2500     0.7660 ca         1 93O      -0.191600
      3 C3          -1.0660     0.0690     1.1110 cp         1 93O       0.083000
      4 C4          -0.7790     0.3210     2.4500 ca         1 93O      -0.189600
      5 C5          -1.8120     0.2500     3.3900 ca         1 93O       0.435300
      6 C6          -1.5850     0.4980     4.8500 c3         1 93O      -0.157400
      7 C8           2.8820    -0.0280     2.5980 c3         1 93O       0.198800
      8 C9           3.5120    -0.4420     1.3140 c2         1 93O      -0.237200
      9 C11          4.8240     0.1240    -0.7390 ca         1 93O      -0.070800
     10 C14          5.9590    -0.2990    -3.2650 ca         1 93O      -0.103000
     11 C15          5.4510    -1.3690    -2.5340 ca         1 93O      -0.110500
     12 C16          4.8910    -1.1620    -1.2850 ca         1 93O      -0.097000
     13 C17         -0.0280     0.1400     0.0550 cp         1 93O      -0.060000
     14 C18          0.5580     1.3530    -0.2670 ca         1 93O      -0.020000
     15 C19          1.4780     1.3960    -1.3040 ca         1 93O      -0.173200
     16 C20          1.8400     0.2680    -2.0200 ca         1 93O      -0.028000
     17 O4          -2.6710     0.4450    -1.4920 o          1 93O      -0.469000
     18 C23         -2.7430    -0.4300    -0.6690 c          1 93O       0.613700
     19 O5          -3.1650    -1.6560    -0.9060 os         1 93O      -0.430100
     20 C24         -3.6730    -1.9610    -2.2120 c3         1 93O       0.162600
     21 C25         -4.2100    -3.3650    -2.1760 c3         1 93O       0.154600
     22 O6          -5.2960    -3.4250    -1.2910 os         1 93O      -0.447000
     23 C26         -5.8540    -4.7120    -1.2100 c3         1 93O       0.143900
     24 C22          0.3420    -1.0100    -0.6390 ca         1 93O      -0.046000
     25 C21          1.2700    -0.9440    -1.6650 ca         1 93O      -0.124000
     26 N1           2.0880     2.6710    -1.6430 no         1 93O       0.694200
     27 O3           2.0040     3.5720    -0.8400 o          1 93O      -0.398500
     28 O2           2.6540     2.7640    -2.7060 o          1 93O      -0.398500
     29 N           -3.0510    -0.0670     3.0320 nb         1 93O      -0.695000
     30 C           -4.7800    -0.6340     1.4540 c3         1 93O      -0.161400
     31 C7           0.6080     0.6610     2.8770 c          1 93O       0.618700
     32 O            0.8900     1.6450     3.5110 o          1 93O      -0.471000
     33 O1           1.4630    -0.2580     2.4710 os         1 93O      -0.443100
     34 C10          4.1890     0.4130     0.5480 ce         1 93O      -0.134200
     35 C13          5.9090     0.9800    -2.7300 ca         1 93O      -0.110500
     36 C12          5.3490     1.1850    -1.4770 ca         1 93O      -0.097000
     37 H1          -1.3930     1.5530     5.0430 hc         1 93O       0.065367
     38 H2          -2.4680     0.2030     5.4120 hc         1 93O       0.065367
     39 H3          -0.7310    -0.0620     5.2320 hc         1 93O       0.065367
     40 H4           3.2320    -0.6330     3.4360 h1         1 93O       0.065200
     41 H5           3.0890     1.0190     2.8200 h1         1 93O       0.065200
     42 H6           3.3870    -1.4800     1.0250 ha         1 93O       0.182000
     43 H7           6.3940    -0.4670    -4.2410 ha         1 93O       0.115000
     44 H8           5.4940    -2.3710    -2.9420 ha         1 93O       0.117000
     45 H9           4.5010    -2.0110    -0.7390 ha         1 93O       0.115500
     46 H10          0.2740     2.2530     0.2610 ha         1 93O       0.159000
     47 H11          2.5640     0.3170    -2.8190 ha         1 93O       0.154000
     48 H12         -4.4560    -1.2500    -2.4840 h1         1 93O       0.060700
     49 H13         -2.8730    -1.8920    -2.9520 h1         1 93O       0.060700
     50 H14         -4.5090    -3.6310    -3.2000 h1         1 93O       0.034700
     51 H15         -3.4170    -4.0680    -1.8850 h1         1 93O       0.034700
     52 H16         -6.2360    -5.0570    -2.1790 h1         1 93O       0.031367
     53 H17         -5.1290    -5.4530    -0.8520 h1         1 93O       0.031367
     54 H18         -6.6850    -4.6750    -0.5070 h1         1 93O       0.031367
     55 H19         -0.0910    -1.9640    -0.3690 ha         1 93O       0.130000
     56 H20          1.5570    -1.8430    -2.1920 ha         1 93O       0.127000
     57 H21         -5.1700     0.0010     0.6560 hc         1 93O       0.066367
     58 H22         -4.8990    -1.6680     1.1280 hc         1 93O       0.066367
     59 H23         -5.3920    -0.4800     2.3390 hc         1 93O       0.066367
     60 H24          4.2710     1.4450     0.8800 ha         1 93O       0.179000
     61 H25          6.3030     1.8200    -3.2870 ha         1 93O       0.117000
     62 H26          5.3120     2.1880    -1.0670 ha         1 93O       0.115500
@<TRIPOS>BOND
     1     1     2 ar  
     2     1    29 ar  
     3     1    30 1   
     4     2     3 ar  
     5     2    18 1   
     6     3     4 ar  
     7     3    13 1   
     8     4     5 ar  
     9     4    31 1   
    10     5     6 1   
    11     5    29 ar  
    12     6    37 1   
    13     6    38 1   
    14     6    39 1   
    15     7     8 1   
    16     7    33 1   
    17     7    40 1   
    18     7    41 1   
    19     8    34 2   
    20     8    42 1   
    21     9    12 ar  
    22     9    34 1   
    23     9    36 ar  
    24    10    11 ar  
    25    10    35 ar  
    26    10    43 1   
    27    11    12 ar  
    28    11    44 1   
    29    12    45 1   
    30    13    14 ar  
    31    13    24 ar  
    32    14    15 ar  
    33    14    46 1   
    34    15    16 ar  
    35    15    26 1   
    36    16    25 ar  
    37    16    47 1   
    38    17    18 2   
    39    18    19 1   
    40    19    20 1   
    41    20    21 1   
    42    20    48 1   
    43    20    49 1   
    44    21    22 1   
    45    21    50 1   
    46    21    51 1   
    47    22    23 1   
    48    23    52 1   
    49    23    53 1   
    50    23    54 1   
    51    24    25 ar  
    52    24    55 1   
    53    25    56 1   
    54    26    27 1   
    55    26    28 1   
    56    30    57 1   
    57    30    58 1   
    58    30    59 1   
    59    31    32 2   
    60    31    33 1   
    61    34    60 1   
    62    35    36 ar  
    63    35    61 1   
    64    36    62 1   
@<TRIPOS>SUBSTRUCTURE
     1 93O         1 TEMP              0 ****  ****    0 ROOT
