@<TRIPOS>MOLECULE
93Q
   16    16     1     0     0
SMALL
bcc


@<TRIPOS>ATOM
      1 C1           0.5680     0.7040     0.0370 ca         1 93Q      -0.253600
      2 C3          -1.8430     0.7170     0.0110 ca         1 93Q      -0.298300
      3 C4          -1.7990    -0.6620    -0.0120 ca         1 93Q       0.444200
      4 C5           0.4880    -0.7080     0.0080 ca         1 93Q       0.657200
      5 N1           1.6250    -1.4660     0.0560 nv         1 93Q      -0.941500
      6 C            1.8940     1.3990     0.0830 c3         1 93Q      -0.035800
      7 N           -0.6680    -1.3620    -0.0170 nb         1 93Q      -0.745000
      8 C2          -0.6260     1.3950     0.0350 ca         1 93Q      -0.057000
      9 H1          -2.7870     1.2450     0.0110 ha         1 93Q       0.142000
     10 H2          -2.7170    -1.2410    -0.0310 h4         1 93Q       0.015100
     11 H3           2.4790    -1.0630    -0.2910 hn         1 93Q       0.411300
     12 H4           1.5100    -2.4350    -0.1920 hn         1 93Q       0.411300
     13 H5           2.5070     1.1740    -0.7940 hc         1 93Q       0.039700
     14 H6           1.7650     2.4790     0.1210 hc         1 93Q       0.039700
     15 H7           2.4730     1.1010     0.9610 hc         1 93Q       0.039700
     16 H8          -0.6090     2.4790     0.0560 ha         1 93Q       0.130000
@<TRIPOS>BOND
     1     1     4 ar  
     2     1     6 1   
     3     1     8 ar  
     4     2     3 ar  
     5     2     8 ar  
     6     2     9 1   
     7     3     7 ar  
     8     3    10 1   
     9     4     5 1   
    10     4     7 ar  
    11     5    11 1   
    12     5    12 1   
    13     6    13 1   
    14     6    14 1   
    15     6    15 1   
    16     8    16 1   
@<TRIPOS>SUBSTRUCTURE
     1 93Q         1 TEMP              0 ****  ****    0 ROOT
