@<TRIPOS>MOLECULE
93Q
   16    16     1     0     0
SMALL
No Charge or Current Charge


@<TRIPOS>ATOM
      1 C1           0.5860     0.7130     0.0520 ca         1 93Q      -0.188300
      2 C3          -1.8230     0.7030     0.0030 ca         1 93Q      -0.215000
      3 C4          -1.7770    -0.7020    -0.0130 ca         1 93Q       0.378900
      4 C5           0.5060    -0.6940     0.0360 ca         1 93Q       0.591900
      5 N1           1.5640    -1.5130     0.0390 nv         1 93Q      -1.051900
      6 C            1.9230     1.4490     0.0860 c3         1 93Q      -0.035800
      7 N           -0.6190    -1.3980     0.0020 nb         1 93Q      -0.745000
      8 C2          -0.6230     1.4310     0.0350 ca         1 93Q      -0.039000
      9 H1          -2.7810     1.2140    -0.0110 ha         1 93Q       0.124000
     10 H2          -2.6960    -1.2860    -0.0400 h4         1 93Q       0.015100
     11 H3           2.4500    -1.1290    -0.2660 hn         1 93Q       0.466500
     12 H4           1.3700    -2.4750    -0.2130 hn         1 93Q       0.466500
     13 H5           2.5070     1.2490    -0.8200 hc         1 93Q       0.039700
     14 H6           1.7860     2.5350     0.1560 hc         1 93Q       0.039700
     15 H7           2.5230     1.1390     0.9500 hc         1 93Q       0.039700
     16 H8          -0.6350     2.5200     0.0470 ha         1 93Q       0.112000
@<TRIPOS>BOND
     1     1     4 ar  
     2     1     6 1   
     3     1     8 ar  
     4     2     3 ar  
     5     2     8 ar  
     6     2     9 1   
     7     3     7 ar  
     8     3    10 1   
     9     4     5 1   
    10     4     7 ar  
    11     5    11 1   
    12     5    12 1   
    13     6    13 1   
    14     6    14 1   
    15     6    15 1   
    16     8    16 1   
@<TRIPOS>SUBSTRUCTURE
     1 93Q         1 TEMP              0 ****  ****    0 ROOT
