@<TRIPOS>MOLECULE
93R
   42    43     1     0     0
SMALL
abcg2


@<TRIPOS>ATOM
      1 O1           1.2220    -3.1130     1.7640 o          1 93R      -0.482000
      2 O2          -3.1200     1.2490    -1.4790 o          1 93R      -0.472000
      3 O3          -2.3940     1.6170     0.6000 os         1 93R      -0.432100
      4 C15         -2.7000     3.0090     0.4960 c3         1 93R       0.150900
      5 C6          -2.1180    -0.5300    -0.2560 ca         1 93R      -0.184600
      6 C5          -2.9340    -1.6180    -0.5850 ca         1 93R       0.436300
      7 C16         -4.3290    -1.4540    -1.1070 c3         1 93R      -0.155400
      8 N           -2.5150    -2.8690    -0.4290 nb         1 93R      -0.698000
      9 C4          -1.2950    -3.1290     0.0240 ca         1 93R       0.436300
     10 C17         -0.9240    -4.5740     0.1470 c3         1 93R      -0.156400
     11 C7          -0.8350    -0.7780     0.2280 cp         1 93R       0.088000
     12 C3          -0.4110    -2.0980     0.3510 ca         1 93R      -0.190600
     13 C2           0.9700    -2.3990     0.8260 c          1 93R       0.616700
     14 O            1.8680    -1.7860     0.0830 os         1 93R      -0.433100
     15 C1           3.2490    -1.8510     0.4750 c3         1 93R       0.166600
     16 C            4.0300    -0.9460    -0.4450 c3         1 93R      -0.098100
     17 C8           0.0750     0.3160     0.6490 cp         1 93R      -0.035000
     18 C13          0.3080     0.5180     2.0020 ca         1 93R      -0.075000
     19 C12          1.1740     1.5130     2.4270 ca         1 93R      -0.104000
     20 C11          1.8200     2.3140     1.5020 ca         1 93R      -0.091000
     21 C10          1.5970     2.1140     0.1480 ca         1 93R       0.108000
     22 CL           2.4360     3.0880    -0.9970 cl         1 93R      -0.171000
     23 C9           0.7280     1.1170    -0.2800 ca         1 93R       0.141000
     24 CL1          0.4860     0.8410    -1.9610 cl         1 93R      -0.153000
     25 H1          -2.4450     3.4410     1.4580 h1         1 93R       0.051033
     26 H2          -2.1060     3.4840    -0.2850 h1         1 93R       0.051033
     27 H3          -3.7580     3.1700     0.2930 h1         1 93R       0.051033
     28 H4          -4.3190    -1.1150    -2.1430 hc         1 93R       0.064700
     29 H5          -4.8460    -2.4090    -1.0680 hc         1 93R       0.064700
     30 H6          -4.9020    -0.7260    -0.5340 hc         1 93R       0.064700
     31 H7           0.0510    -4.7890    -0.2900 hc         1 93R       0.064367
     32 H8          -0.8820    -4.8760     1.1940 hc         1 93R       0.064367
     33 H9          -1.6700    -5.1870    -0.3520 hc         1 93R       0.064367
     34 H10          3.3480    -1.5330     1.5150 h1         1 93R       0.047700
     35 H11          3.5980    -2.8830     0.4040 h1         1 93R       0.047700
     36 H12          3.9430    -1.2580    -1.4860 hc         1 93R       0.049700
     37 H13          3.7000     0.0900    -0.3640 hc         1 93R       0.049700
     38 H14          5.0840    -0.9840    -0.1720 hc         1 93R       0.049700
     39 H15         -0.2040    -0.1010     2.7280 ha         1 93R       0.133000
     40 H16          1.3470     1.6680     3.4820 ha         1 93R       0.126000
     41 H17          2.4990     3.0910     1.8240 ha         1 93R       0.133000
     42 C14         -2.6020     0.8630    -0.4630 c          1 93R       0.613700
@<TRIPOS>BOND
     1     1    13 2   
     2     2    42 2   
     3     3     4 1   
     4     3    42 1   
     5     4    25 1   
     6     4    26 1   
     7     4    27 1   
     8     5     6 ar  
     9     5    11 ar  
    10     5    42 1   
    11     6     7 1   
    12     6     8 ar  
    13     7    28 1   
    14     7    29 1   
    15     7    30 1   
    16     8     9 ar  
    17     9    10 1   
    18     9    12 ar  
    19    10    31 1   
    20    10    32 1   
    21    10    33 1   
    22    11    12 ar  
    23    11    17 1   
    24    12    13 1   
    25    13    14 1   
    26    14    15 1   
    27    15    16 1   
    28    15    34 1   
    29    15    35 1   
    30    16    36 1   
    31    16    37 1   
    32    16    38 1   
    33    17    18 ar  
    34    17    23 ar  
    35    18    19 ar  
    36    18    39 1   
    37    19    20 ar  
    38    19    40 1   
    39    20    21 ar  
    40    20    41 1   
    41    21    22 1   
    42    21    23 ar  
    43    23    24 1   
@<TRIPOS>SUBSTRUCTURE
     1 93R         1 TEMP              0 ****  ****    0 ROOT
