@<TRIPOS>MOLECULE
93R
   42    43     1     0     0
SMALL
No Charge or Current Charge


@<TRIPOS>ATOM
      1 O1           1.1580    -3.1430     1.8140 o          1 93R      -0.482000
      2 O2          -3.0200     1.3240    -1.4750 o          1 93R      -0.472000
      3 O3          -2.4720     1.5950     0.7310 os         1 93R      -0.432100
      4 C15         -2.8560     2.9810     0.7050 c3         1 93R       0.150900
      5 C6          -2.1240    -0.5460    -0.2870 ca         1 93R      -0.184600
      6 C5          -2.9490    -1.6270    -0.6340 ca         1 93R       0.436300
      7 C16         -4.3620    -1.4430    -1.1620 c3         1 93R      -0.155400
      8 N           -2.5530    -2.9100    -0.4950 nb         1 93R      -0.698000
      9 C4          -1.3190    -3.1580    -0.0100 ca         1 93R       0.436300
     10 C17         -0.9460    -4.6280     0.0860 c3         1 93R      -0.156400
     11 C7          -0.8160    -0.7680     0.2200 cp         1 93R       0.088000
     12 C3          -0.4350    -2.1300     0.3480 ca         1 93R      -0.190600
     13 C2           0.9410    -2.4120     0.8580 c          1 93R       0.616700
     14 O            1.9220    -1.7780     0.1410 os         1 93R      -0.433100
     15 C1           3.2840    -1.9270     0.5680 c3         1 93R       0.166600
     16 C            4.1450    -1.0500    -0.3540 c3         1 93R      -0.098100
     17 C8           0.1020     0.3510     0.6010 cp         1 93R      -0.035000
     18 C13          0.3530     0.6250     1.9670 ca         1 93R      -0.075000
     19 C12          1.2250     1.6580     2.3480 ca         1 93R      -0.104000
     20 C11          1.8640     2.4330     1.3670 ca         1 93R      -0.091000
     21 C10          1.6340     2.1740     0.0050 ca         1 93R       0.108000
     22 Cl           2.4690     3.1600    -1.1980 cl         1 93R      -0.171000
     23 C9           0.7580     1.1380    -0.3830 ca         1 93R       0.141000
     24 Cl1          0.5050     0.8030    -2.1000 cl         1 93R      -0.153000
     25 H1          -2.7150     3.4340     1.6940 h1         1 93R       0.051033
     26 H2          -2.2450     3.5420    -0.0150 h1         1 93R       0.051033
     27 H3          -3.9120     3.0910     0.4270 h1         1 93R       0.051033
     28 H4          -4.3470    -1.0390    -2.1800 hc         1 93R       0.064700
     29 H5          -4.9130    -2.3910    -1.1920 hc         1 93R       0.064700
     30 H6          -4.9320    -0.7540    -0.5290 hc         1 93R       0.064700
     31 H7           0.0230    -4.8200    -0.3880 hc         1 93R       0.064367
     32 H8          -0.8820    -4.9450     1.1330 hc         1 93R       0.064367
     33 H9          -1.6850    -5.2690    -0.4090 hc         1 93R       0.064367
     34 H10          3.4080    -1.5940     1.6070 h1         1 93R       0.047700
     35 H11          3.6070    -2.9740     0.4930 h1         1 93R       0.047700
     36 H12          4.0390    -1.3680    -1.3980 hc         1 93R       0.049700
     37 H13          3.8450     0.0020    -0.2760 hc         1 93R       0.049700
     38 H14          5.2020    -1.1290    -0.0750 hc         1 93R       0.049700
     39 H15         -0.1380     0.0300     2.7340 ha         1 93R       0.133000
     40 H16          1.4050     1.8570     3.4020 ha         1 93R       0.126000
     41 H17          2.5410     3.2310     1.6600 ha         1 93R       0.133000
     42 C14         -2.5800     0.8700    -0.4280 c          1 93R       0.613700
@<TRIPOS>BOND
     1     1    13 2   
     2     2    42 2   
     3     3     4 1   
     4     3    42 1   
     5     4    25 1   
     6     4    26 1   
     7     4    27 1   
     8     5     6 ar  
     9     5    11 ar  
    10     5    42 1   
    11     6     7 1   
    12     6     8 ar  
    13     7    28 1   
    14     7    29 1   
    15     7    30 1   
    16     8     9 ar  
    17     9    10 1   
    18     9    12 ar  
    19    10    31 1   
    20    10    32 1   
    21    10    33 1   
    22    11    12 ar  
    23    11    17 1   
    24    12    13 1   
    25    13    14 1   
    26    14    15 1   
    27    15    16 1   
    28    15    34 1   
    29    15    35 1   
    30    16    36 1   
    31    16    37 1   
    32    16    38 1   
    33    17    18 ar  
    34    17    23 ar  
    35    18    19 ar  
    36    18    39 1   
    37    19    20 ar  
    38    19    40 1   
    39    20    21 ar  
    40    20    41 1   
    41    21    22 1   
    42    21    23 ar  
    43    23    24 1   
@<TRIPOS>SUBSTRUCTURE
     1 93R         1 TEMP              0 ****  ****    0 ROOT
