@<TRIPOS>MOLECULE
93S
   59    60     1     0     0
SMALL
bcc


@<TRIPOS>ATOM
      1 C5           5.8770     1.2710    -0.0510 c          1 93S       0.811100
      2 C6          -5.9520    -1.3100     0.0200 c          1 93S       0.811100
      3 C7           9.0540     0.5850     0.1650 ca         1 93S      -0.282500
      4 C8          -9.0790    -0.3090     0.1880 ca         1 93S      -0.282500
      5 C14         -9.3900     0.7260    -0.6840 ca         1 93S      -0.034000
      6 C13          9.4280    -0.4740    -0.6510 ca         1 93S      -0.034000
      7 C19          9.9580    -1.6030    -0.0500 ca         1 93S       0.001900
      8 C20         -9.8270     1.9220    -0.1420 ca         1 93S       0.001900
      9 C23         -2.3360    -0.6590    -0.4720 c3         1 93S      -0.100900
     10 C24          2.3190     0.3420    -0.5020 c3         1 93S      -0.100900
     11 C25         -9.2060    -0.1800     1.5610 ca         1 93S      -0.001500
     12 C26          9.2070     0.5430     1.5420 ca         1 93S      -0.001500
     13 C28          9.7480    -0.5990     2.1140 ca         1 93S      -0.142000
     14 C29         -9.6550     1.0290     2.0730 ca         1 93S      -0.142000
     15 C30         -3.5750    -0.9470     0.3600 c3         1 93S       0.112500
     16 C31          3.5910     0.5320     0.3080 c3         1 93S       0.112500
     17 C32         -1.1240    -0.5040     0.4250 c3         1 93S       0.143400
     18 C33          1.1680    -0.0400     0.4070 c3         1 93S       0.143400
     19 C34         10.1230    -1.6750     1.3260 ca         1 93S      -0.067000
     20 C35         -9.9650     2.0840     1.2300 ca         1 93S      -0.067000
     21 N17          4.6860     0.9270    -0.5560 ns         1 93S      -0.574900
     22 N18         -4.7270    -1.1430    -0.4970 ns         1 93S      -0.574900
     23 N3          -6.9410    -1.5700    -0.9280 ns         1 93S      -0.674300
     24 N4           6.8300     1.6110    -1.0110 ns         1 93S      -0.674300
     25 O10         -8.5920    -2.8670     0.5050 o          1 93S      -0.596050
     26 O11         -9.1960    -2.0340    -1.7830 o          1 93S      -0.596050
     27 O12          8.3730     3.1080     0.3570 o          1 93S      -0.596050
     28 O15          6.1460     1.2980     1.1350 o          1 93S      -0.609600
     29 O16         -6.2220    -1.2370     1.2050 o          1 93S      -0.609600
     30 O27          0.0040    -0.2120    -0.3620 os         1 93S      -0.413600
     31 O9           9.0410     2.2160    -1.8900 o          1 93S      -0.596050
     32 S1           8.3860     2.0310    -0.6090 sy         1 93S       1.342900
     33 S2          -8.5260    -1.8400    -0.5110 sy         1 93S       1.342900
     34 CL21        10.4280    -2.9420    -1.0360 cl         1 93S      -0.101400
     35 CL22       -10.2190     3.2330    -1.1980 cl         1 93S      -0.101400
     36 H1          -9.2970     0.6130    -1.7560 ha         1 93S       0.159500
     37 H2           9.3120    -0.4290    -1.7260 ha         1 93S       0.159500
     38 H3          -2.1660    -1.4750    -1.1800 hc         1 93S       0.059450
     39 H4          -2.4860     0.2550    -1.0530 hc         1 93S       0.059450
     40 H5           2.0780     1.2680    -1.0300 hc         1 93S       0.059450
     41 H6           2.4700    -0.4390    -1.2540 hc         1 93S       0.059450
     42 H7          -8.9660    -0.9970     2.2250 ha         1 93S       0.172000
     43 H8           8.9140     1.3770     2.1610 ha         1 93S       0.172000
     44 H9           9.8780    -0.6510     3.1860 ha         1 93S       0.144000
     45 H10         -9.7640     1.1520     3.1420 ha         1 93S       0.144000
     46 H11         -3.4090    -1.8330     0.9820 h1         1 93S       0.056200
     47 H12         -3.7670    -0.1130     1.0380 h1         1 93S       0.056200
     48 H13          3.4320     1.3000     1.0690 h1         1 93S       0.056200
     49 H14          3.8400    -0.3940     0.8340 h1         1 93S       0.056200
     50 H15         -1.3000     0.2990     1.1560 h1         1 93S       0.027200
     51 H16         -0.9660    -1.4260     1.0030 h1         1 93S       0.027200
     52 H17          1.4100    -0.9630     0.9530 h1         1 93S       0.027200
     53 H18          1.0180     0.7440     1.1640 h1         1 93S       0.027200
     54 H19         10.5430    -2.5630     1.7790 ha         1 93S       0.150000
     55 H20        -10.3130     3.0240     1.6350 ha         1 93S       0.150000
     56 H21          4.5430     0.9060    -1.5530 hn         1 93S       0.321500
     57 H22         -4.5650    -1.3470    -1.4710 hn         1 93S       0.321500
     58 H23         -6.7640    -1.4680    -1.9210 hn         1 93S       0.342500
     59 H24          6.6550     1.4890    -2.0020 hn         1 93S       0.342500
@<TRIPOS>BOND
     1     1    21 1   
     2     1    24 1   
     3     1    28 2   
     4     2    22 1   
     5     2    23 1   
     6     2    29 2   
     7     3     6 ar  
     8     3    12 ar  
     9     3    32 1   
    10     4     5 ar  
    11     4    11 ar  
    12     4    33 1   
    13     5     8 ar  
    14     5    36 1   
    15     6     7 ar  
    16     6    37 1   
    17     7    19 ar  
    18     7    34 1   
    19     8    20 ar  
    20     8    35 1   
    21     9    15 1   
    22     9    17 1   
    23     9    38 1   
    24     9    39 1   
    25    10    16 1   
    26    10    18 1   
    27    10    40 1   
    28    10    41 1   
    29    11    14 ar  
    30    11    42 1   
    31    12    13 ar  
    32    12    43 1   
    33    13    19 ar  
    34    13    44 1   
    35    14    20 ar  
    36    14    45 1   
    37    15    22 1   
    38    15    46 1   
    39    15    47 1   
    40    16    21 1   
    41    16    48 1   
    42    16    49 1   
    43    17    30 1   
    44    17    50 1   
    45    17    51 1   
    46    18    30 1   
    47    18    52 1   
    48    18    53 1   
    49    19    54 1   
    50    20    55 1   
    51    21    56 1   
    52    22    57 1   
    53    23    33 1   
    54    23    58 1   
    55    24    32 1   
    56    24    59 1   
    57    25    33 2   
    58    26    33 2   
    59    27    32 2   
    60    31    32 2   
@<TRIPOS>SUBSTRUCTURE
     1 93S         1 TEMP              0 ****  ****    0 ROOT
