@<TRIPOS>MOLECULE
93S
   59    60     1     0     0
SMALL
No Charge or Current Charge


@<TRIPOS>ATOM
      1 C5           6.0300     1.3520     0.0900 c          1 93S       0.677100
      2 C6          -6.0310    -1.3690     0.0830 c          1 93S       0.677100
      3 C7           9.2220     0.4150    -0.1940 ca         1 93S      -0.282500
      4 C8          -9.2170    -0.4080    -0.1850 ca         1 93S      -0.282500
      5 C14         -9.5100     0.7370    -0.9600 ca         1 93S      -0.016000
      6 C13          9.5230    -0.7170    -0.9840 ca         1 93S      -0.016000
      7 C19         10.1000    -1.8540    -0.3930 ca         1 93S       0.093500
      8 C20        -10.0790     1.8700    -0.3540 ca         1 93S       0.093500
      9 C23         -2.3290    -0.5580    -0.0510 c3         1 93S      -0.100900
     10 C24          2.3300     0.5320    -0.0480 c3         1 93S      -0.100900
     11 C25         -9.4920    -0.4030     1.1990 ca         1 93S       0.016500
     12 C26          9.4990     0.3950     1.1900 ca         1 93S       0.016500
     13 C28         10.0770    -0.7470     1.7740 ca         1 93S      -0.124000
     14 C29        -10.0610     0.7350     1.7990 ca         1 93S      -0.124000
     15 C30         -3.6530    -0.8750     0.6660 c3         1 93S       0.112500
     16 C31          3.6560     0.8350     0.6710 c3         1 93S       0.112500
     17 C32         -1.1730    -0.2980     0.9320 c3         1 93S       0.166600
     18 C33          1.1780     0.2520     0.9330 c3         1 93S       0.166600
     19 C34         10.3780    -1.8710     0.9840 ca         1 93S      -0.049000
     20 C35        -10.3560     1.8710     1.0240 ca         1 93S      -0.049000
     21 N17          4.7390     1.0970    -0.2780 ns         1 93S      -0.507900
     22 N18         -4.7390    -1.1180    -0.2840 ns         1 93S      -0.507900
     23 N3          -6.8370    -1.5520    -0.9800 ns         1 93S      -0.607300
     24 N4           6.8330     1.5530    -0.9710 ns         1 93S      -0.607300
     25 O10         -8.6790    -3.0180    -0.0840 o          1 93S      -0.525250
     26 O11         -8.8740    -1.8900    -2.3740 o          1 93S      -0.525250
     27 O12          8.6660     3.0200    -0.0590 o          1 93S      -0.525250
     28 O15          6.3970     1.3860     1.2500 o          1 93S      -0.609600
     29 O16         -6.3970    -1.4160     1.2420 o          1 93S      -0.609600
     30 O27          0.0010    -0.0150     0.1550 os         1 93S      -0.460000
     31 O9           8.8650     1.9230    -2.3640 o          1 93S      -0.525250
     32 S1           8.4740     1.8700    -0.9510 sy         1 93S       1.201300
     33 S2          -8.4800    -1.8580    -0.9620 sy         1 93S       1.201300
     34 Cl21        10.4740    -3.2620    -1.3800 cl         1 93S      -0.193000
     35 Cl22       -10.4440     3.2930    -1.3220 cl         1 93S      -0.193000
     36 H1          -9.3010     0.7550    -2.0280 ha         1 93S       0.141500
     37 H2           9.3120    -0.7230    -2.0520 ha         1 93S       0.141500
     38 H3          -2.0610    -1.3980    -0.7050 hc         1 93S       0.059450
     39 H4          -2.4640     0.3240    -0.6880 hc         1 93S       0.059450
     40 H5           2.0600     1.3830    -0.6840 hc         1 93S       0.059450
     41 H6           2.4630    -0.3390    -0.7020 hc         1 93S       0.059450
     42 H7          -9.2640    -1.2730     1.8150 ha         1 93S       0.154000
     43 H8           9.2650     1.2550     1.8170 ha         1 93S       0.154000
     44 H9          10.2890    -0.7610     2.8400 ha         1 93S       0.126000
     45 H10        -10.2720     0.7360     2.8660 ha         1 93S       0.126000
     46 H11         -3.5280    -1.7660     1.2960 h1         1 93S       0.056200
     47 H12         -3.9310    -0.0330     1.3140 h1         1 93S       0.056200
     48 H13          3.5330     1.7140     1.3180 h1         1 93S       0.056200
     49 H14          3.9370    -0.0200     1.3020 h1         1 93S       0.056200
     50 H15         -1.4250     0.5520     1.5800 h1         1 93S       0.027200
     51 H16         -1.0190    -1.1840     1.5620 h1         1 93S       0.027200
     52 H17          1.4310    -0.6110     1.5640 h1         1 93S       0.027200
     53 H18          1.0250     1.1260     1.5810 h1         1 93S       0.027200
     54 H19         10.8240    -2.7520     1.4370 ha         1 93S       0.132000
     55 H20        -10.7950     2.7500     1.4890 ha         1 93S       0.132000
     56 H21          4.5290     1.0910    -1.2670 hn         1 93S       0.321500
     57 H22         -4.5300    -1.1010    -1.2730 hn         1 93S       0.321500
     58 H23         -6.4820    -1.4790    -1.9160 hn         1 93S       0.342500
     59 H24          6.4780     1.4890    -1.9080 hn         1 93S       0.342500
@<TRIPOS>BOND
     1     1    21 1   
     2     1    24 1   
     3     1    28 2   
     4     2    22 1   
     5     2    23 1   
     6     2    29 2   
     7     3     6 ar  
     8     3    12 ar  
     9     3    32 1   
    10     4     5 ar  
    11     4    11 ar  
    12     4    33 1   
    13     5     8 ar  
    14     5    36 1   
    15     6     7 ar  
    16     6    37 1   
    17     7    19 ar  
    18     7    34 1   
    19     8    20 ar  
    20     8    35 1   
    21     9    15 1   
    22     9    17 1   
    23     9    38 1   
    24     9    39 1   
    25    10    16 1   
    26    10    18 1   
    27    10    40 1   
    28    10    41 1   
    29    11    14 ar  
    30    11    42 1   
    31    12    13 ar  
    32    12    43 1   
    33    13    19 ar  
    34    13    44 1   
    35    14    20 ar  
    36    14    45 1   
    37    15    22 1   
    38    15    46 1   
    39    15    47 1   
    40    16    21 1   
    41    16    48 1   
    42    16    49 1   
    43    17    30 1   
    44    17    50 1   
    45    17    51 1   
    46    18    30 1   
    47    18    52 1   
    48    18    53 1   
    49    19    54 1   
    50    20    55 1   
    51    21    56 1   
    52    22    57 1   
    53    23    33 1   
    54    23    58 1   
    55    24    32 1   
    56    24    59 1   
    57    25    33 2   
    58    26    33 2   
    59    27    32 2   
    60    31    32 2   
@<TRIPOS>SUBSTRUCTURE
     1 93S         1 TEMP              0 ****  ****    0 ROOT
