@<TRIPOS>MOLECULE
93T
   38    40     1     0     0
SMALL
No Charge or Current Charge


@<TRIPOS>ATOM
      1 CAH          2.9250    -1.3530    -0.1370 ca         1 93T      -0.093000
      2 CAF          4.3180    -1.1640    -0.1880 ca         1 93T      -0.093000
      3 CAQ          4.8580     0.1230    -0.0530 ca         1 93T      -0.021900
      4 Br           6.7520     0.3770    -0.1230 br         1 93T      -0.121100
      5 CAG          4.0090     1.2230     0.1330 ca         1 93T      -0.093000
      6 CAI          2.6170     1.0360     0.1850 ca         1 93T      -0.093000
      7 CAS          2.0500    -0.2550     0.0510 ca         1 93T      -0.061900
      8 CAT          0.5850    -0.4400     0.1070 cc         1 93T       0.406200
      9 CAJ         -0.0790    -1.6940    -0.0170 cc         1 93T      -0.387600
     10 NAN         -0.2510     0.5860     0.2850 nd         1 93T      -0.591100
     11 NAW         -1.4690    -0.0680     0.2650 na         1 93T       0.133900
     12 CAR         -2.7090     0.5560     0.4210 cd         1 93T      -0.036300
     13 CAB         -2.8000     2.0600     0.6200 c3         1 93T      -0.049800
     14 CAV         -1.3940    -1.4250     0.0910 cd         1 93T       0.380500
     15 NAM         -2.3600    -2.3890     0.0390 nd         1 93T      -0.679000
     16 CAP         -3.5470    -1.7980     0.1960 cc         1 93T       0.406300
     17 CAA         -4.7190    -2.7530     0.1800 c3         1 93T      -0.153400
     18 CAU         -3.7860    -0.3500     0.3910 cc         1 93T      -0.136300
     19 CAL         -5.2160     0.1510     0.5660 c3         1 93T      -0.015100
     20 CAK         -5.8900     0.5470    -0.7720 c3         1 93T      -0.209400
     21 CAO         -7.3180     1.0510    -0.5090 c          1 93T       0.718000
     22 OAD         -8.2230     0.2320    -0.4930 o          1 93T      -0.733500
     23 OAC         -7.4740     2.2390    -0.2710 o          1 93T      -0.733500
     24 H1           2.5410    -2.3630    -0.2450 ha         1 93T       0.129000
     25 H2           4.9760    -2.0170    -0.3330 ha         1 93T       0.123000
     26 H3           4.4270     2.2220     0.2380 ha         1 93T       0.123000
     27 H4           1.9800     1.9060     0.3300 ha         1 93T       0.129000
     28 H5           0.3700    -2.6660    -0.1610 ha         1 93T       0.216000
     29 H6          -1.9530     2.5900     0.1700 hc         1 93T       0.064033
     30 H7          -3.7020     2.4810     0.1650 hc         1 93T       0.064033
     31 H8          -2.8170     2.3090     1.6880 hc         1 93T       0.064033
     32 H9          -4.4080    -3.7720    -0.0780 hc         1 93T       0.060700
     33 H10         -5.1950    -2.8020     1.1660 hc         1 93T       0.060700
     34 H11         -5.4710    -2.4550    -0.5570 hc         1 93T       0.060700
     35 H12         -5.8410    -0.5850     1.0830 hc         1 93T       0.058200
     36 H13         -5.2270     1.0190     1.2360 hc         1 93T       0.058200
     37 H14         -5.2750     1.3480    -1.1990 hc         1 93T       0.022200
     38 H15         -5.9130    -0.3590    -1.3890 hc         1 93T       0.022200
@<TRIPOS>BOND
     1     1     2 ar  
     2     1     7 ar  
     3     1    24 1   
     4     2     3 ar  
     5     2    25 1   
     6     3     4 1   
     7     3     5 ar  
     8     5     6 ar  
     9     5    26 1   
    10     6     7 ar  
    11     6    27 1   
    12     7     8 1   
    13     8     9 1   
    14     8    10 2   
    15     9    14 2   
    16     9    28 1   
    17    10    11 1   
    18    11    12 1   
    19    11    14 1   
    20    12    13 1   
    21    12    18 2   
    22    13    29 1   
    23    13    30 1   
    24    13    31 1   
    25    14    15 1   
    26    15    16 2   
    27    16    17 1   
    28    16    18 1   
    29    17    32 1   
    30    17    33 1   
    31    17    34 1   
    32    18    19 1   
    33    19    20 1   
    34    19    35 1   
    35    19    36 1   
    36    20    21 1   
    37    20    37 1   
    38    20    38 1   
    39    21    22 1   
    40    21    23 1   
@<TRIPOS>SUBSTRUCTURE
     1 93T         1 TEMP              0 ****  ****    0 ROOT
