@<TRIPOS>MOLECULE
93T
   38    40     1     0     0
SMALL
abcg2


@<TRIPOS>ATOM
      1 CAH          2.9550    -1.2890    -0.2040 ca         1 93T      -0.093000
      2 CAF          4.3110    -1.0030    -0.2270 ca         1 93T      -0.093000
      3 CAQ          4.7310     0.2980     0.0100 ca         1 93T      -0.021900
      4 BR           6.5750     0.6990    -0.0150 br         1 93T      -0.121100
      5 CAG          3.8140     1.3070     0.2650 ca         1 93T      -0.093000
      6 CAI          2.4630     1.0050     0.2840 ca         1 93T      -0.093000
      7 CAS          2.0120    -0.2950     0.0510 ca         1 93T      -0.061900
      8 CAT          0.5820    -0.6080     0.0810 cc         1 93T       0.406200
      9 CAJ         -0.0300    -1.8560    -0.0870 cc         1 93T      -0.387600
     10 NAN         -0.3070     0.3620     0.2970 nd         1 93T      -0.591100
     11 NAW         -1.4880    -0.2460     0.2770 na         1 93T       0.133900
     12 CAR         -2.6880     0.3700     0.4700 cd         1 93T      -0.036300
     13 CAB         -2.6440     1.8410     0.6800 c3         1 93T      -0.049800
     14 CAV         -1.3860    -1.5990     0.0460 cd         1 93T       0.380500
     15 NAM         -2.4700    -2.3800    -0.0140 nd         1 93T      -0.679000
     16 CAP         -3.6380    -1.8210     0.1740 cc         1 93T       0.406300
     17 CAA         -4.8310    -2.7230     0.1090 c3         1 93T      -0.153400
     18 CAU         -3.8060    -0.4220     0.4390 cc         1 93T      -0.136300
     19 CAL         -5.1820     0.1570     0.6230 c3         1 93T      -0.015100
     20 CAK         -5.7670     0.6850    -0.6840 c3         1 93T      -0.209400
     21 CAO         -7.1980     1.2460    -0.5800 c          1 93T       0.718000
     22 OAD         -7.8030     1.0930     0.5000 o          1 93T      -0.733500
     23 OAC         -7.6390     1.8020    -1.6060 o          1 93T      -0.733500
     24 H1           2.6420    -2.3070    -0.3940 ha         1 93T       0.129000
     25 H2           5.0220    -1.7930    -0.4260 ha         1 93T       0.123000
     26 H3           4.1380     2.3220     0.4510 ha         1 93T       0.123000
     27 H4           1.7520     1.7950     0.4860 ha         1 93T       0.129000
     28 H5           0.4240    -2.8140    -0.2750 ha         1 93T       0.216000
     29 H6          -2.2610     2.3400    -0.2120 hc         1 93T       0.064033
     30 H7          -3.6270     2.2450     0.8970 hc         1 93T       0.064033
     31 H8          -1.9730     2.0970     1.5010 hc         1 93T       0.064033
     32 H9          -4.5300    -3.7180    -0.2090 hc         1 93T       0.060700
     33 H10         -5.3140    -2.8050     1.0850 hc         1 93T       0.060700
     34 H11         -5.5830    -2.3470    -0.5860 hc         1 93T       0.060700
     35 H12         -5.8460    -0.5990     1.0420 hc         1 93T       0.058200
     36 H13         -5.1560     0.9550     1.3670 hc         1 93T       0.058200
     37 H14         -5.1150     1.4620    -1.0970 hc         1 93T       0.022200
     38 H15         -5.7680    -0.1100    -1.4380 hc         1 93T       0.022200
@<TRIPOS>BOND
     1     1     2 ar  
     2     1     7 ar  
     3     1    24 1   
     4     2     3 ar  
     5     2    25 1   
     6     3     4 1   
     7     3     5 ar  
     8     5     6 ar  
     9     5    26 1   
    10     6     7 ar  
    11     6    27 1   
    12     7     8 1   
    13     8     9 1   
    14     8    10 2   
    15     9    14 2   
    16     9    28 1   
    17    10    11 1   
    18    11    12 1   
    19    11    14 1   
    20    12    13 1   
    21    12    18 2   
    22    13    29 1   
    23    13    30 1   
    24    13    31 1   
    25    14    15 1   
    26    15    16 2   
    27    16    17 1   
    28    16    18 1   
    29    17    32 1   
    30    17    33 1   
    31    17    34 1   
    32    18    19 1   
    33    19    20 1   
    34    19    35 1   
    35    19    36 1   
    36    20    21 1   
    37    20    37 1   
    38    20    38 1   
    39    21    22 1   
    40    21    23 1   
@<TRIPOS>SUBSTRUCTURE
     1 93T         1 TEMP              0 ****  ****    0 ROOT
