@<TRIPOS>MOLECULE
93U
   62    64     1     0     0
SMALL
No Charge or Current Charge


@<TRIPOS>ATOM
      1 C1          -3.1670    -2.2970    -1.2560 ca         1 93U       0.435300
      2 O1           0.8130    -2.9340     1.6210 os         1 93U      -0.434100
      3 O2          -1.3810     5.0210     1.6110 o          1 93U      -0.399000
      4 C2          -2.5590    -1.0500    -1.0600 ca         1 93U      -0.191600
      5 C3          -1.5340    -0.8820    -0.0930 cp         1 93U       0.088000
      6 C4          -1.1730    -2.0540     0.6250 ca         1 93U      -0.185600
      7 C5          -1.8380    -3.2710     0.3810 ca         1 93U       0.433300
      8 O3          -3.1150     3.6990     1.6960 o          1 93U      -0.399000
      9 O4          -4.0760     0.5780    -1.9240 o          1 93U      -0.468000
     10 O5          -1.8850     0.6560    -2.5900 os         1 93U      -0.432100
     11 C24         -2.9340     0.1440    -1.8720 c          1 93U       0.609700
     12 C25         -2.1200     1.8250    -3.3950 c3         1 93U       0.148900
     13 C18         -0.9040     0.4530     0.1530 cp         1 93U      -0.064000
     14 C23          0.4550     0.6850    -0.1570 ca         1 93U      -0.031000
     15 C22          1.0290     1.9510     0.0400 ca         1 93U      -0.122000
     16 C21          0.2620     3.0060     0.5580 ca         1 93U      -0.041000
     17 C20         -1.0980     2.8010     0.8850 ca         1 93U      -0.183200
     18 N2          -1.9240     3.9210     1.4390 no         1 93U       0.695200
     19 C19         -1.6690     1.5230     0.6780 ca         1 93U      -0.025000
     20 C6          -1.5680    -4.5480     1.1630 c3         1 93U      -0.153400
     21 N           -2.8160    -3.3860    -0.5430 nb         1 93U      -0.698000
     22 C           -4.2490    -2.5240    -2.2970 c3         1 93U      -0.157400
     23 C7          -0.0990    -1.9100     1.6600 c          1 93U       0.622700
     24 O           -0.1440    -1.0680     2.5470 o          1 93U      -0.473000
     25 C8           1.9490    -2.9210     2.5170 c3         1 93U       0.162600
     26 C9           3.2230    -2.5300     1.7160 c3         1 93U       0.149800
     27 N1           3.2440    -1.1760     1.0920 n3         1 93U      -0.715600
     28 C10          3.1930    -0.0770     2.0880 c3         1 93U       0.136100
     29 C11          4.3790    -1.0290     0.1440 c3         1 93U       0.210100
     30 C12          4.2730     0.1910    -0.7670 ca         1 93U      -0.086300
     31 C17          4.9590     1.3830    -0.4540 ca         1 93U      -0.102500
     32 C16          4.8600     2.5020    -1.3000 ca         1 93U      -0.114000
     33 C15          4.0790     2.4360    -2.4660 ca         1 93U      -0.109000
     34 C14          3.3990     1.2490    -2.7880 ca         1 93U      -0.114000
     35 C13          3.4990     0.1300    -1.9430 ca         1 93U      -0.102500
     36 H1          -1.1970     2.1260    -3.9080 h1         1 93U       0.051700
     37 H2          -2.8850     1.6300    -4.1580 h1         1 93U       0.051700
     38 H3          -2.4530     2.6670    -2.7740 h1         1 93U       0.051700
     39 H4           1.0600    -0.1230    -0.5600 ha         1 93U       0.145000
     40 H5           2.0730     2.1160    -0.2110 ha         1 93U       0.136000
     41 H6           0.7330     3.9770     0.7030 ha         1 93U       0.149000
     42 H7          -2.7150     1.3430     0.9220 ha         1 93U       0.160000
     43 H8          -0.6490    -5.0320     0.8120 hc         1 93U       0.061700
     44 H9          -1.4610    -4.3420     2.2340 hc         1 93U       0.061700
     45 H10         -2.3840    -5.2720     1.0540 hc         1 93U       0.061700
     46 H11         -3.9410    -2.1390    -3.2750 hc         1 93U       0.065033
     47 H12         -4.4790    -3.5890    -2.4210 hc         1 93U       0.065033
     48 H13         -5.1770    -2.0180    -2.0080 hc         1 93U       0.065033
     49 H14          1.8090    -2.2530     3.3760 h1         1 93U       0.062700
     50 H15          2.1060    -3.9290     2.9200 h1         1 93U       0.062700
     51 H16          4.0860    -2.6360     2.3880 h1         1 93U       0.043200
     52 H17          3.3460    -3.2920     0.9340 h1         1 93U       0.043200
     53 H19          4.0800    -0.0950     2.7350 h1         1 93U       0.038033
     54 H20          3.1520     0.9020     1.5960 h1         1 93U       0.038033
     55 H21          2.3050    -0.1560     2.7270 h1         1 93U       0.038033
     56 H22          5.3280    -0.9850     0.6970 h1         1 93U       0.040200
     57 H23          4.4380    -1.9150    -0.5030 h1         1 93U       0.040200
     58 H24          5.5650     1.4420     0.4470 ha         1 93U       0.115000
     59 H25          5.3880     3.4200    -1.0510 ha         1 93U       0.115500
     60 H26          4.0010     3.3020    -3.1200 ha         1 93U       0.115000
     61 H27          2.7950     1.1950    -3.6910 ha         1 93U       0.115500
     62 H28          2.9710    -0.7870    -2.1980 ha         1 93U       0.115000
@<TRIPOS>BOND
     1     1     4 ar  
     2     1    21 ar  
     3     1    22 1   
     4     2    23 1   
     5     2    25 1   
     6     3    18 1   
     7     4     5 ar  
     8     4    11 1   
     9     5     6 ar  
    10     5    13 1   
    11     6     7 ar  
    12     6    23 1   
    13     7    20 1   
    14     7    21 ar  
    15     8    18 1   
    16     9    11 2   
    17    10    11 1   
    18    10    12 1   
    19    12    36 1   
    20    12    37 1   
    21    12    38 1   
    22    13    14 ar  
    23    13    19 ar  
    24    14    15 ar  
    25    14    39 1   
    26    15    16 ar  
    27    15    40 1   
    28    16    17 ar  
    29    16    41 1   
    30    17    18 1   
    31    17    19 ar  
    32    19    42 1   
    33    20    43 1   
    34    20    44 1   
    35    20    45 1   
    36    22    46 1   
    37    22    47 1   
    38    22    48 1   
    39    23    24 2   
    40    25    26 1   
    41    25    49 1   
    42    25    50 1   
    43    26    27 1   
    44    26    51 1   
    45    26    52 1   
    46    27    28 1   
    47    27    29 1   
    48    28    53 1   
    49    28    54 1   
    50    28    55 1   
    51    29    30 1   
    52    29    56 1   
    53    29    57 1   
    54    30    31 ar  
    55    30    35 ar  
    56    31    32 ar  
    57    31    58 1   
    58    32    33 ar  
    59    32    59 1   
    60    33    34 ar  
    61    33    60 1   
    62    34    35 ar  
    63    34    61 1   
    64    35    62 1   
@<TRIPOS>SUBSTRUCTURE
     1 93U         1 TEMP              0 ****  ****    0 ROOT
