@<TRIPOS>MOLECULE
93U
   62    64     1     0     0
SMALL
abcg2


@<TRIPOS>ATOM
      1 C1          -3.0750    -2.2420    -1.3080 ca         1 93U       0.435300
      2 O1           0.8580    -2.7350     1.5410 os         1 93U      -0.434100
      3 O2          -1.4670     4.9110     1.5000 o          1 93U      -0.399000
      4 C2          -2.4950    -0.9910    -1.0800 ca         1 93U      -0.191600
      5 C3          -1.5220    -0.8630    -0.0910 cp         1 93U       0.088000
      6 C4          -1.1410    -2.0020     0.6150 ca         1 93U      -0.185600
      7 C5          -1.7710    -3.2180     0.3300 ca         1 93U       0.433300
      8 O3          -3.1570     3.6100     1.4990 o          1 93U      -0.399000
      9 O4          -4.0460     0.5800    -1.9800 o          1 93U      -0.468000
     10 O5          -1.8810     0.7310    -2.5150 os         1 93U      -0.432100
     11 C24         -2.9100     0.1870    -1.8950 c          1 93U       0.609700
     12 C25         -2.1140     1.9270    -3.2630 c3         1 93U       0.148900
     13 C18         -0.9170     0.4600     0.1860 cp         1 93U      -0.064000
     14 C23          0.4400     0.6770    -0.0310 ca         1 93U      -0.031000
     15 C22          0.9900     1.9330     0.1680 ca         1 93U      -0.122000
     16 C21          0.2030     2.9840     0.6050 ca         1 93U      -0.041000
     17 C20         -1.1440     2.7460     0.8380 ca         1 93U      -0.183200
     18 N2          -1.9840     3.8360     1.3140 no         1 93U       0.695200
     19 C19         -1.7180     1.5010     0.6310 ca         1 93U      -0.025000
     20 C6          -1.4660    -4.4840     1.0710 c3         1 93U      -0.153400
     21 N           -2.7090    -3.3060    -0.6060 nb         1 93U      -0.698000
     22 C           -4.1230    -2.4610    -2.3560 c3         1 93U      -0.157400
     23 C7          -0.1340    -1.8820     1.7090 c          1 93U       0.622700
     24 O           -0.2410    -1.0970     2.6150 o          1 93U      -0.473000
     25 C8           1.9510    -2.7720     2.4690 c3         1 93U       0.162600
     26 C9           3.2420    -2.4760     1.7340 c3         1 93U       0.149800
     27 N1           3.2800    -1.1640     1.1190 n3         1 93U      -0.715600
     28 C10          3.3190    -0.1020     2.1030 c3         1 93U       0.136100
     29 C11          4.3950    -1.0590     0.1870 c3         1 93U       0.210100
     30 C12          4.2420     0.1070    -0.7530 ca         1 93U      -0.086300
     31 C17          4.9670     1.2820    -0.5790 ca         1 93U      -0.102500
     32 C16          4.7940     2.3590    -1.4410 ca         1 93U      -0.114000
     33 C15          3.8940     2.2690    -2.4940 ca         1 93U      -0.109000
     34 C14          3.1720     1.0970    -2.6830 ca         1 93U      -0.114000
     35 C13          3.3490     0.0260    -1.8190 ca         1 93U      -0.102500
     36 H1          -1.1430     2.2370    -3.6360 h1         1 93U       0.051700
     37 H2          -2.7870     1.7440    -4.0990 h1         1 93U       0.051700
     38 H3          -2.5280     2.7130    -2.6310 h1         1 93U       0.051700
     39 H4           1.0750    -0.1350    -0.3560 ha         1 93U       0.145000
     40 H5           2.0410     2.0960    -0.0300 ha         1 93U       0.136000
     41 H6           0.6360     3.9610     0.7600 ha         1 93U       0.149000
     42 H7          -2.7690     1.3380     0.8260 ha         1 93U       0.160000
     43 H8          -0.5140    -4.9100     0.7500 hc         1 93U       0.061700
     44 H9          -1.4080    -4.3310     2.1480 hc         1 93U       0.061700
     45 H10         -2.2450    -5.2150     0.8720 hc         1 93U       0.061700
     46 H11         -3.8470    -2.0150    -3.3110 hc         1 93U       0.065033
     47 H12         -4.2740    -3.5270    -2.5040 hc         1 93U       0.065033
     48 H13         -5.0740    -2.0210    -2.0540 hc         1 93U       0.065033
     49 H14          1.7780    -2.0930     3.3010 h1         1 93U       0.062700
     50 H15          1.9930    -3.7860     2.8680 h1         1 93U       0.062700
     51 H16          4.0610    -2.6310     2.4570 h1         1 93U       0.043200
     52 H17          3.3750    -3.2280     0.9520 h1         1 93U       0.043200
     53 H19          4.1980    -0.1690     2.7630 h1         1 93U       0.038033
     54 H20          3.3480     0.8680     1.6090 h1         1 93U       0.038033
     55 H21          2.4260    -0.1090     2.7260 h1         1 93U       0.038033
     56 H22          5.3610    -0.9860     0.7140 h1         1 93U       0.040200
     57 H23          4.4300    -1.9790    -0.4010 h1         1 93U       0.040200
     58 H24          5.6720     1.3580     0.2410 ha         1 93U       0.115000
     59 H25          5.3640     3.2670    -1.2890 ha         1 93U       0.115500
     60 H26          3.7570     3.1070    -3.1660 ha         1 93U       0.115000
     61 H27          2.4700     1.0180    -3.5030 ha         1 93U       0.115500
     62 H28          2.7830    -0.8860    -1.9700 ha         1 93U       0.115000
@<TRIPOS>BOND
     1     1     4 ar  
     2     1    21 ar  
     3     1    22 1   
     4     2    23 1   
     5     2    25 1   
     6     3    18 1   
     7     4     5 ar  
     8     4    11 1   
     9     5     6 ar  
    10     5    13 1   
    11     6     7 ar  
    12     6    23 1   
    13     7    20 1   
    14     7    21 ar  
    15     8    18 1   
    16     9    11 2   
    17    10    11 1   
    18    10    12 1   
    19    12    36 1   
    20    12    37 1   
    21    12    38 1   
    22    13    14 ar  
    23    13    19 ar  
    24    14    15 ar  
    25    14    39 1   
    26    15    16 ar  
    27    15    40 1   
    28    16    17 ar  
    29    16    41 1   
    30    17    18 1   
    31    17    19 ar  
    32    19    42 1   
    33    20    43 1   
    34    20    44 1   
    35    20    45 1   
    36    22    46 1   
    37    22    47 1   
    38    22    48 1   
    39    23    24 2   
    40    25    26 1   
    41    25    49 1   
    42    25    50 1   
    43    26    27 1   
    44    26    51 1   
    45    26    52 1   
    46    27    28 1   
    47    27    29 1   
    48    28    53 1   
    49    28    54 1   
    50    28    55 1   
    51    29    30 1   
    52    29    56 1   
    53    29    57 1   
    54    30    31 ar  
    55    30    35 ar  
    56    31    32 ar  
    57    31    58 1   
    58    32    33 ar  
    59    32    59 1   
    60    33    34 ar  
    61    33    60 1   
    62    34    35 ar  
    63    34    61 1   
    64    35    62 1   
@<TRIPOS>SUBSTRUCTURE
     1 93U         1 TEMP              0 ****  ****    0 ROOT
