@<TRIPOS>MOLECULE
93V
   27    28     1     0     0
SMALL
No Charge or Current Charge


@<TRIPOS>ATOM
      1 C6          -1.2300    -1.4230     1.0100 c          1 93V       0.759600
      2 C8           1.0260     0.3450    -0.2800 ca         1 93V      -0.049500
      3 C3          -0.4110     0.6110    -0.3220 cc         1 93V       0.056500
      4 C2          -2.6360     0.5530    -0.1860 cd         1 93V      -0.184600
      5 C1          -1.4360    -0.1540     0.2070 cd         1 93V      -0.070600
      6 C4          -2.2370     1.6610    -0.8960 cc         1 93V       0.105900
      7 C11          1.8760     1.1970     0.4490 ca         1 93V      -0.083500
      8 C15          3.8180    -0.1000    -0.2670 ca         1 93V       0.068100
      9 C12          1.5810    -0.7190    -1.0180 ca         1 93V      -0.083500
     10 C16          2.9700    -0.9400    -1.0060 ca         1 93V      -0.176000
     11 C17          3.2660     0.9760     0.4630 ca         1 93V      -0.176000
     12 C19          6.1230     0.4380     0.4300 c3         1 93V       0.162900
     13 O10         -4.4790    -0.6450     0.6950 o          1 93V      -0.735000
     14 O13         -2.1910    -2.0800     1.3780 o          1 93V      -0.733000
     15 O14         -4.8890     1.1100    -0.4340 o          1 93V      -0.735000
     16 O18          5.1720    -0.3640    -0.2930 os         1 93V      -0.359100
     17 O5          -0.8730     1.7160    -0.9820 os         1 93V      -0.314000
     18 O9          -0.0970    -1.7800     1.2980 o          1 93V      -0.733000
     19 H1          -2.7940     2.4590    -1.3670 h4         1 93V       0.024100
     20 H2           1.4560     2.0320     1.0050 ha         1 93V       0.138500
     21 H3           0.9330    -1.3710    -1.6000 ha         1 93V       0.138500
     22 H4           3.3890    -1.7660    -1.5750 ha         1 93V       0.093500
     23 H5           3.8930     1.6490     1.0400 ha         1 93V       0.093500
     24 H6           6.0960     1.4790     0.0850 h1         1 93V       0.020033
     25 H7           5.9130     0.4160     1.5070 h1         1 93V       0.020033
     26 H8           7.1390     0.0540     0.2730 h1         1 93V       0.020033
     27 C7          -4.0960     0.3110     0.0450 c          1 93V       0.731600
@<TRIPOS>BOND
     1     1     5 1   
     2     1    14 1   
     3     1    18 1   
     4     2     3 1   
     5     2     7 ar  
     6     2     9 ar  
     7     3     5 2   
     8     3    17 1   
     9     4     5 1   
    10     4     6 2   
    11     4    27 1   
    12     6    17 1   
    13     6    19 1   
    14     7    11 ar  
    15     7    20 1   
    16     8    10 ar  
    17     8    11 ar  
    18     8    16 1   
    19     9    10 ar  
    20     9    21 1   
    21    10    22 1   
    22    11    23 1   
    23    12    16 1   
    24    12    24 1   
    25    12    25 1   
    26    12    26 1   
    27    13    27 1   
    28    15    27 1   
@<TRIPOS>SUBSTRUCTURE
     1 93V         1 TEMP              0 ****  ****    0 ROOT
