@<TRIPOS>MOLECULE
93V
   27    28     1     0     0
SMALL
abcg2


@<TRIPOS>ATOM
      1 C6          -1.4790    -1.6830     0.3940 c          1 93V       0.759600
      2 C8           1.0600     0.3420    -0.1410 ca         1 93V      -0.049500
      3 C3          -0.3740     0.5850    -0.1450 cc         1 93V       0.056500
      4 C2          -2.6060     0.6530    -0.0630 cd         1 93V      -0.184600
      5 C1          -1.4640    -0.2080     0.0540 cd         1 93V      -0.070600
      6 C4          -2.1130     1.8920    -0.3180 cc         1 93V       0.105900
      7 C11          1.9710     1.3610     0.1370 ca         1 93V      -0.083500
      8 C15          3.8350    -0.1430    -0.1170 ca         1 93V       0.068100
      9 C12          1.5760    -0.9300    -0.4180 ca         1 93V      -0.083500
     10 C16          2.9340    -1.1720    -0.4010 ca         1 93V      -0.176000
     11 C17          3.3410     1.1310     0.1480 ca         1 93V      -0.176000
     12 C19          6.0910     0.5470     0.1300 c3         1 93V       0.162900
     13 O10         -4.3240    -0.8850     0.3410 o          1 93V      -0.735000
     14 O13         -1.5400    -2.4740    -0.5660 o          1 93V      -0.733000
     15 O14         -4.8700     1.2370    -0.0890 o          1 93V      -0.735000
     16 O18          5.1420    -0.4680    -0.1300 os         1 93V      -0.359100
     17 O5          -0.7720     1.8690    -0.3690 os         1 93V      -0.314000
     18 O9          -1.3960    -1.9650     1.6020 o          1 93V      -0.733000
     19 H1          -2.5870     2.8460    -0.4810 h4         1 93V       0.024100
     20 H2           1.6220     2.3600     0.3620 ha         1 93V       0.138500
     21 H3           0.9050    -1.7380    -0.6780 ha         1 93V       0.138500
     22 H4           3.3100    -2.1630    -0.6250 ha         1 93V       0.093500
     23 H5           4.0010     1.9590     0.3710 ha         1 93V       0.093500
     24 H6           6.0230     1.3640    -0.5940 h1         1 93V       0.020033
     25 H7           5.9840     0.9600     1.1360 h1         1 93V       0.020033
     26 H8           7.0710     0.0850     0.0450 h1         1 93V       0.020033
     27 C7          -4.0580     0.3020     0.0740 c          1 93V       0.731600
@<TRIPOS>BOND
     1     1     5 1   
     2     1    14 1   
     3     1    18 1   
     4     2     3 1   
     5     2     7 ar  
     6     2     9 ar  
     7     3     5 2   
     8     3    17 1   
     9     4     5 1   
    10     4     6 2   
    11     4    27 1   
    12     6    17 1   
    13     6    19 1   
    14     7    11 ar  
    15     7    20 1   
    16     8    10 ar  
    17     8    11 ar  
    18     8    16 1   
    19     9    10 ar  
    20     9    21 1   
    21    10    22 1   
    22    11    23 1   
    23    12    16 1   
    24    12    24 1   
    25    12    25 1   
    26    12    26 1   
    27    13    27 1   
    28    15    27 1   
@<TRIPOS>SUBSTRUCTURE
     1 93V         1 TEMP              0 ****  ****    0 ROOT
