@<TRIPOS>MOLECULE
93W
   44    47     1     0     0
SMALL
No Charge or Current Charge


@<TRIPOS>ATOM
      1 C24         16.1220   -13.0380    17.8890 cc         1 93W      -0.124100
      2 C19         17.5270   -15.1980    17.8190 c3         1 93W       0.001800
      3 C20         16.6270   -14.1440    17.2130 cd         1 93W      -0.130400
      4 C21         16.1840   -14.1080    15.8350 ca         1 93W      -0.092800
      5 C16         19.3220   -13.6580    18.8360 c          1 93W       0.711000
      6 C10         20.1690   -15.5030    12.9270 ca         1 93W       0.194100
      7 C01         20.8330   -13.6390     9.1840 ca         1 93W      -0.104000
      8 C02         20.7990   -15.0390     9.2630 ca         1 93W      -0.126000
      9 C03         20.5800   -15.6700    10.4980 ca         1 93W      -0.065000
     10 C04         20.3940   -14.9000    11.6680 ca         1 93W      -0.061000
     11 C05         20.4270   -13.4870    11.5900 ca         1 93W      -0.038000
     12 C06         20.6480   -12.8630    10.3410 ca         1 93W      -0.094000
     13 C07         20.2370   -12.7400    12.7800 ca         1 93W       0.417000
     14 N08         20.0240   -13.3080    13.9860 nb         1 93W      -0.600000
     15 C09         19.9870   -14.6710    14.0660 ca         1 93W       0.169500
     16 O13         19.6810   -16.5360    15.5810 o          1 93W      -0.693100
     17 N14         19.5000   -14.4380    16.4630 ns         1 93W      -0.387900
     18 C15         19.0260   -14.8010    17.8190 c3         1 93W      -0.042300
     19 C22         15.4370   -12.9720    15.7050 ca         1 93W      -0.050200
     20 N23         15.3830   -12.3200    16.9240 na         1 93W      -0.240700
     21 C25         14.8570   -12.6070    14.4840 ca         1 93W      -0.135000
     22 C26         15.0660   -13.4570    13.3750 ca         1 93W      -0.105000
     23 C27         15.8330   -14.6390    13.5130 ca         1 93W      -0.151000
     24 C28         16.4020   -14.9800    14.7590 ca         1 93W      -0.055000
     25 H1          16.2360   -12.7130    18.9200 h4         1 93W       0.232000
     26 H2          17.2130   -15.4090    18.8490 hc         1 93W       0.045700
     27 H3          17.4090   -16.1420    17.2750 hc         1 93W       0.045700
     28 H4          19.9540   -17.0550    14.0170 ho         1 93W       0.544000
     29 H5          21.0020   -13.1520     8.2260 ha         1 93W       0.106000
     30 H6          20.9420   -15.6370     8.3650 ha         1 93W       0.108000
     31 H7          20.5570   -16.7570    10.5380 ha         1 93W       0.133000
     32 H8          20.6790   -11.7800    10.2510 ha         1 93W       0.125000
     33 H9          19.5590   -13.4520    16.2270 hn         1 93W       0.343500
     34 H10         19.6080   -15.6680    18.1560 h1         1 93W       0.070700
     35 H12         14.8880   -11.4500    17.0930 hn         1 93W       0.339000
     36 H13         14.2660   -11.6990    14.3900 ha         1 93W       0.099000
     37 H14         14.6310   -13.2030    12.4100 ha         1 93W       0.093000
     38 H15         15.9850   -15.2890    12.6540 ha         1 93W       0.098000
     39 H16         16.9840   -15.8900    14.8760 ha         1 93W       0.113000
     40 O17         19.4300   -13.9610    20.0160 o          1 93W      -0.718500
     41 C12         19.7170   -15.3150    15.4230 c          1 93W       0.505600
     42 O11         20.1240   -16.8720    13.0480 oh         1 93W      -0.566100
     43 O18         19.5420   -12.5300    18.4140 o          1 93W      -0.718500
     44 Cl1         20.2570   -10.9780    12.8010 cl         1 93W      -0.194000
@<TRIPOS>BOND
     1     1     3 2   
     2     1    20 1   
     3     1    25 1   
     4     2     3 1   
     5     2    18 1   
     6     2    26 1   
     7     2    27 1   
     8     3     4 1   
     9     4    19 ar  
    10     4    24 ar  
    11     5    18 1   
    12     5    40 1   
    13     5    43 1   
    14     6    10 ar  
    15     6    15 ar  
    16     6    42 1   
    17     7     8 ar  
    18     7    12 ar  
    19     7    29 1   
    20     8     9 ar  
    21     8    30 1   
    22     9    10 ar  
    23     9    31 1   
    24    10    11 ar  
    25    11    12 ar  
    26    11    13 ar  
    27    12    32 1   
    28    13    14 ar  
    29    13    44 1   
    30    14    15 ar  
    31    15    41 1   
    32    16    41 2   
    33    17    18 1   
    34    17    33 1   
    35    17    41 1   
    36    18    34 1   
    37    19    20 1   
    38    19    21 ar  
    39    20    35 1   
    40    21    22 ar  
    41    21    36 1   
    42    22    23 ar  
    43    22    37 1   
    44    23    24 ar  
    45    23    38 1   
    46    24    39 1   
    47    28    42 1   
@<TRIPOS>SUBSTRUCTURE
     1 93W         1 TEMP              0 ****  ****    0 ROOT
