@<TRIPOS>MOLECULE
93W
   44    47     1     0     0
SMALL
abcg2


@<TRIPOS>ATOM
      1 C24         16.3390   -12.9180    18.1090 cc         1 93W      -0.124100
      2 C19         17.1900   -15.3060    17.6880 c3         1 93W       0.001800
      3 C20         16.4800   -14.0380    17.3280 cd         1 93W      -0.130400
      4 C21         15.8740   -13.7220    16.0600 ca         1 93W      -0.092800
      5 C16         19.4290   -14.2680    18.3670 c          1 93W       0.711000
      6 C10         20.9560   -15.5060    13.0110 ca         1 93W       0.194100
      7 C01         21.0860   -13.9820     9.0780 ca         1 93W      -0.104000
      8 C02         21.9680   -15.0110     9.4560 ca         1 93W      -0.126000
      9 C03         21.9390   -15.5160    10.7340 ca         1 93W      -0.065000
     10 C04         21.0240   -15.0060    11.6760 ca         1 93W      -0.061000
     11 C05         20.1330   -13.9650    11.2950 ca         1 93W      -0.038000
     12 C06         20.1850   -13.4650     9.9790 ca         1 93W      -0.094000
     13 C07         19.2340   -13.5000    12.3030 ca         1 93W       0.417000
     14 N08         19.1770   -13.9680    13.5000 nb         1 93W      -0.600000
     15 C09         20.0180   -14.9690    13.8790 ca         1 93W       0.169500
     16 O13         20.6890   -16.3730    15.6720 o          1 93W      -0.693100
     17 N14         18.9340   -14.9590    16.0070 ns         1 93W      -0.387900
     18 C15         18.7060   -15.2610    17.4040 c3         1 93W      -0.042300
     19 C22         15.3860   -12.3890    16.1470 ca         1 93W      -0.050200
     20 N23         15.6840   -11.9310    17.4070 na         1 93W      -0.240700
     21 C25         14.7370   -11.7650    15.0820 ca         1 93W      -0.135000
     22 C26         14.5720   -12.4940    13.9150 ca         1 93W      -0.105000
     23 C27         15.0430   -13.8160    13.8070 ca         1 93W      -0.151000
     24 C28         15.6910   -14.4330    14.8640 ca         1 93W      -0.055000
     25 H1          16.6610   -12.7460    19.1230 h4         1 93W       0.232000
     26 H2          17.0710   -15.5230    18.7490 hc         1 93W       0.045700
     27 H3          16.7590   -16.1400    17.1300 hc         1 93W       0.045700
     28 H4          21.5740   -16.6650    14.3410 ho         1 93W       0.544000
     29 H5          21.1180   -13.5930     8.0680 ha         1 93W       0.106000
     30 H6          22.6710   -15.4060     8.7340 ha         1 93W       0.108000
     31 H7          22.6130   -16.3080    11.0310 ha         1 93W       0.133000
     32 H8          19.5100   -12.6750     9.6850 ha         1 93W       0.125000
     33 H9          18.4170   -14.1980    15.5870 hn         1 93W       0.343500
     34 H10         19.1250   -16.2480    17.5960 h1         1 93W       0.070700
     35 H12         15.4600   -11.0180    17.7650 hn         1 93W       0.339000
     36 H13         14.3760   -10.7470    15.1660 ha         1 93W       0.099000
     37 H14         14.0760   -12.0370    13.0680 ha         1 93W       0.093000
     38 H15         14.9030   -14.3530    12.8780 ha         1 93W       0.098000
     39 H16         16.0590   -15.4470    14.7650 ha         1 93W       0.113000
     40 O17         19.3130   -14.5450    19.5860 o          1 93W      -0.718500
     41 C12         19.9040   -15.4810    15.2650 c          1 93W       0.505600
     42 O11         21.7960   -16.4780    13.3800 oh         1 93W      -0.566100
     43 O18         20.0520   -13.3050    17.8670 o          1 93W      -0.718500
     44 CL1         18.1150   -12.1970    11.9160 cl         1 93W      -0.194000
@<TRIPOS>BOND
     1     1     3 2   
     2     1    20 1   
     3     1    25 1   
     4     2     3 1   
     5     2    18 1   
     6     2    26 1   
     7     2    27 1   
     8     3     4 1   
     9     4    19 ar  
    10     4    24 ar  
    11     5    18 1   
    12     5    40 1   
    13     5    43 1   
    14     6    10 ar  
    15     6    15 ar  
    16     6    42 1   
    17     7     8 ar  
    18     7    12 ar  
    19     7    29 1   
    20     8     9 ar  
    21     8    30 1   
    22     9    10 ar  
    23     9    31 1   
    24    10    11 ar  
    25    11    12 ar  
    26    11    13 ar  
    27    12    32 1   
    28    13    14 ar  
    29    13    44 1   
    30    14    15 ar  
    31    15    41 1   
    32    16    41 2   
    33    17    18 1   
    34    17    33 1   
    35    17    41 1   
    36    18    34 1   
    37    19    20 1   
    38    19    21 ar  
    39    20    35 1   
    40    21    22 ar  
    41    21    36 1   
    42    22    23 ar  
    43    22    37 1   
    44    23    24 ar  
    45    23    38 1   
    46    24    39 1   
    47    28    42 1   
@<TRIPOS>SUBSTRUCTURE
     1 93W         1 TEMP              0 ****  ****    0 ROOT
