@<TRIPOS>MOLECULE
93X
   51    53     1     0     0
SMALL
abcg2


@<TRIPOS>ATOM
      1 C29         -1.7040    -4.0550     1.0200 c3         1 93X       0.183600
      2 O50         -1.6970    -5.2820     0.3360 oh         1 93X      -0.647000
      3 C3          -1.3660    -2.9610     0.0320 cy         1 93X      -0.168700
      4 C4           0.0810    -2.8820    -0.4310 c          1 93X       0.584000
      5 O5           0.8440    -3.6040    -1.0240 o          1 93X      -0.486000
      6 N1           0.2350    -1.6370     0.1060 nj         1 93X      -0.242400
      7 C6           1.2870    -0.7340     0.2020 ca         1 93X       0.065000
      8 C11          2.4880    -0.9740    -0.4610 ca         1 93X      -0.273500
      9 C10          3.5140    -0.0390    -0.3500 ca         1 93X       0.184600
     10 O23          4.7090    -0.1670    -0.9490 os         1 93X      -0.324100
     11 C24          4.9600    -1.3260    -1.7200 c3         1 93X       0.145400
     12 C9           3.3480     1.1180     0.4170 ca         1 93X      -0.007900
     13 O21          4.3670     2.0110     0.5360 os         1 93X      -0.324100
     14 C22          4.3690     3.0310    -0.4530 c3         1 93X       0.146900
     15 C8           2.1330     1.3410     1.0670 ca         1 93X       0.184600
     16 O25          2.0470     2.4820     1.7690 os         1 93X      -0.324100
     17 C26          0.8450     2.7600     2.4610 c3         1 93X       0.145400
     18 C7           1.1010     0.4110     0.9700 ca         1 93X      -0.273500
     19 C2          -1.1230    -1.5580     0.6480 cy         1 93X       0.157000
     20 C12         -1.9570    -0.4170     0.1480 ca         1 93X      -0.103300
     21 C17         -2.7780     0.2690     1.0390 ca         1 93X      -0.115000
     22 C16         -3.5680     1.3230     0.6130 ca         1 93X       0.118100
     23 O18         -4.3480     1.9600     1.5080 oh         1 93X      -0.534100
     24 C15         -3.5370     1.7100    -0.7360 ca         1 93X       0.059100
     25 O19         -4.3380     2.7510    -1.0470 os         1 93X      -0.366100
     26 C20         -4.3710     3.2010    -2.3870 c3         1 93X       0.155900
     27 C14         -2.7160     1.0310    -1.6230 ca         1 93X      -0.154000
     28 C13         -1.9290    -0.0270    -1.1820 ca         1 93X      -0.083000
     29 H1          -2.6860    -3.8320     1.4580 h1         1 93X       0.026200
     30 H2          -0.9780    -4.0410     1.8440 h1         1 93X       0.026200
     31 H3          -1.8830    -5.9810     0.9700 ho         1 93X       0.449000
     32 H4          -2.0790    -2.9460    -0.7960 hc         1 93X       0.106700
     33 H7           2.6080    -1.8690    -1.0510 ha         1 93X       0.136000
     34 H8           4.9160    -2.2350    -1.1150 h1         1 93X       0.043033
     35 H9           4.2610    -1.4230    -2.5540 h1         1 93X       0.043033
     36 H10          5.9660    -1.2180    -2.1170 h1         1 93X       0.043033
     37 H11          5.2400     3.6570    -0.2690 h1         1 93X       0.031367
     38 H12          4.4430     2.6170    -1.4620 h1         1 93X       0.031367
     39 H13          3.4730     3.6540    -0.3950 h1         1 93X       0.031367
     40 H14          0.9860     3.7200     2.9500 h1         1 93X       0.043033
     41 H15         -0.0100     2.8340     1.7830 h1         1 93X       0.043033
     42 H16          0.6290     2.0050     3.2210 h1         1 93X       0.043033
     43 H17          0.1590     0.5740     1.4720 ha         1 93X       0.136000
     44 H18         -1.1240    -1.5740     1.7430 h1         1 93X       0.070700
     45 H19         -2.8050    -0.0140     2.0850 ha         1 93X       0.129000
     46 H20         -4.8310     2.6770     1.0790 ho         1 93X       0.484000
     47 H21         -4.7210     2.4190    -3.0650 h1         1 93X       0.044367
     48 H22         -5.0680     4.0330    -2.4190 h1         1 93X       0.044367
     49 H23         -3.3900     3.5470    -2.7230 h1         1 93X       0.044367
     50 H24         -2.6730     1.3170    -2.6650 ha         1 93X       0.122000
     51 H25         -1.2890    -0.5330    -1.8950 ha         1 93X       0.126000
@<TRIPOS>BOND
     1     1     2 1   
     2     1     3 1   
     3     1    29 1   
     4     1    30 1   
     5     2    31 1   
     6     3     4 1   
     7     3    19 1   
     8     3    32 1   
     9     4     5 2   
    10     4     6 1   
    11     6     7 1   
    12     6    19 1   
    13     7     8 ar  
    14     7    18 ar  
    15     8     9 ar  
    16     8    33 1   
    17     9    10 1   
    18     9    12 ar  
    19    10    11 1   
    20    11    34 1   
    21    11    35 1   
    22    11    36 1   
    23    12    13 1   
    24    12    15 ar  
    25    13    14 1   
    26    14    37 1   
    27    14    38 1   
    28    14    39 1   
    29    15    16 1   
    30    15    18 ar  
    31    16    17 1   
    32    17    40 1   
    33    17    41 1   
    34    17    42 1   
    35    18    43 1   
    36    19    20 1   
    37    19    44 1   
    38    20    21 ar  
    39    20    28 ar  
    40    21    22 ar  
    41    21    45 1   
    42    22    23 1   
    43    22    24 ar  
    44    23    46 1   
    45    24    25 1   
    46    24    27 ar  
    47    25    26 1   
    48    26    47 1   
    49    26    48 1   
    50    26    49 1   
    51    27    28 ar  
    52    27    50 1   
    53    28    51 1   
@<TRIPOS>SUBSTRUCTURE
     1 93X         1 TEMP              0 ****  ****    0 ROOT
