@<TRIPOS>MOLECULE
93X
   51    53     1     0     0
SMALL
No Charge or Current Charge


@<TRIPOS>ATOM
      1 C29         -1.7700    -4.1080     1.1420 c3         1 93X       0.183600
      2 O50         -1.8570    -5.3880     0.5130 oh         1 93X      -0.647000
      3 C3          -1.3680    -3.0240     0.1420 cy         1 93X      -0.168700
      4 C4           0.1060    -3.0030    -0.3290 c          1 93X       0.584000
      5 O5           0.8430    -3.8010    -0.8930 o          1 93X      -0.486000
      6 N1           0.2810    -1.6820     0.1200 nj         1 93X      -0.242400
      7 C6           1.3350    -0.7380     0.0960 ca         1 93X       0.065000
      8 C11          2.5280    -1.0180    -0.5800 ca         1 93X      -0.273500
      9 C10          3.5760    -0.0740    -0.6100 ca         1 93X       0.184600
     10 O23          4.7630    -0.3370    -1.2750 os         1 93X      -0.324100
     11 C24          5.0100    -1.5740    -1.9670 c3         1 93X       0.145400
     12 C9           3.4360     1.1760     0.0400 ca         1 93X      -0.007900
     13 O21          4.5260     2.0460    -0.0480 os         1 93X      -0.324100
     14 C22          4.5890     3.3560     0.5430 c3         1 93X       0.146900
     15 C8           2.2180     1.4640     0.7270 ca         1 93X       0.184600
     16 O25          2.0380     2.6780     1.3690 os         1 93X      -0.324100
     17 C26          0.8170     3.0450     2.0380 c3         1 93X       0.145400
     18 C7           1.1890     0.4960     0.7470 ca         1 93X      -0.273500
     19 C2          -1.0840    -1.5910     0.6860 cy         1 93X       0.157000
     20 C12         -1.9790    -0.4630     0.1750 ca         1 93X      -0.103300
     21 C17         -2.7200     0.3140     1.0860 ca         1 93X      -0.115000
     22 C16         -3.5290     1.3650     0.6260 ca         1 93X       0.118100
     23 O18         -4.2420     2.1140     1.5180 oh         1 93X      -0.534100
     24 C15         -3.6110     1.6550    -0.7510 ca         1 93X       0.059100
     25 O19         -4.4230     2.7020    -1.1520 os         1 93X      -0.366100
     26 C20         -4.5690     3.0760    -2.5350 c3         1 93X       0.155900
     27 C14         -2.8680     0.8780    -1.6670 ca         1 93X      -0.154000
     28 C13         -2.0580    -0.1730    -1.2030 ca         1 93X      -0.083000
     29 H1          -2.7410    -3.8290     1.5730 h1         1 93X       0.026200
     30 H2          -1.0300    -4.1270     1.9540 h1         1 93X       0.026200
     31 H3          -2.1370    -6.0290     1.2040 ho         1 93X       0.449000
     32 H4          -2.0320    -3.0580    -0.7260 hc         1 93X       0.106700
     33 H7           2.6340    -1.9720    -1.0840 ha         1 93X       0.136000
     34 H8           4.9560    -2.4250    -1.2770 h1         1 93X       0.043033
     35 H9           4.2780    -1.7240    -2.7720 h1         1 93X       0.043033
     36 H10          6.0100    -1.5640    -2.4170 h1         1 93X       0.043033
     37 H11          5.5580     3.8210     0.3230 h1         1 93X       0.031367
     38 H12          3.8060     4.0080     0.1360 h1         1 93X       0.031367
     39 H13          4.4850     3.3000     1.6340 h1         1 93X       0.031367
     40 H14          0.9020     4.0560     2.4550 h1         1 93X       0.043033
     41 H15         -0.0290     3.0360     1.3390 h1         1 93X       0.043033
     42 H16          0.6010     2.3550     2.8640 h1         1 93X       0.043033
     43 H17          0.2610     0.6950     1.2700 ha         1 93X       0.136000
     44 H18         -1.0360    -1.5550     1.7810 h1         1 93X       0.070700
     45 H19         -2.6680     0.1080     2.1530 ha         1 93X       0.129000
     46 H20         -4.7330     2.7820     0.9890 ho         1 93X       0.484000
     47 H21         -4.9770     2.2440    -3.1230 h1         1 93X       0.044367
     48 H22         -5.2550     3.9270    -2.6290 h1         1 93X       0.044367
     49 H23         -3.6020     3.3700    -2.9640 h1         1 93X       0.044367
     50 H24         -2.9040     1.0740    -2.7350 ha         1 93X       0.122000
     51 H25         -1.4840    -0.7590    -1.9190 ha         1 93X       0.126000
@<TRIPOS>BOND
     1     1     2 1   
     2     1     3 1   
     3     1    29 1   
     4     1    30 1   
     5     2    31 1   
     6     3     4 1   
     7     3    19 1   
     8     3    32 1   
     9     4     5 2   
    10     4     6 1   
    11     6     7 1   
    12     6    19 1   
    13     7     8 ar  
    14     7    18 ar  
    15     8     9 ar  
    16     8    33 1   
    17     9    10 1   
    18     9    12 ar  
    19    10    11 1   
    20    11    34 1   
    21    11    35 1   
    22    11    36 1   
    23    12    13 1   
    24    12    15 ar  
    25    13    14 1   
    26    14    37 1   
    27    14    38 1   
    28    14    39 1   
    29    15    16 1   
    30    15    18 ar  
    31    16    17 1   
    32    17    40 1   
    33    17    41 1   
    34    17    42 1   
    35    18    43 1   
    36    19    20 1   
    37    19    44 1   
    38    20    21 ar  
    39    20    28 ar  
    40    21    22 ar  
    41    21    45 1   
    42    22    23 1   
    43    22    24 ar  
    44    23    46 1   
    45    24    25 1   
    46    24    27 ar  
    47    25    26 1   
    48    26    47 1   
    49    26    48 1   
    50    26    49 1   
    51    27    28 ar  
    52    27    50 1   
    53    28    51 1   
@<TRIPOS>SUBSTRUCTURE
     1 93X         1 TEMP              0 ****  ****    0 ROOT
