@<TRIPOS>MOLECULE
93Y
   58    59     1     0     0
SMALL
bcc


@<TRIPOS>ATOM
      1 C5          -5.4040    -1.2480    -0.4510 c          1 93Y       0.811100
      2 C6           5.7210    -1.2490     0.0800 c          1 93Y       0.811100
      3 C7          -8.3560    -0.0620     0.2380 ca         1 93Y      -0.280500
      4 C8           8.5060     0.3940     0.5410 ca         1 93Y      -0.280500
      5 C14          8.7510     0.8640    -0.7390 ca         1 93Y      -0.016500
      6 C13         -8.3940     1.3140     0.0590 ca         1 93Y      -0.016500
      7 C19         -8.7030     2.1030     1.1530 ca         1 93Y       0.002900
      8 C20          8.9230     2.2280    -0.9060 ca         1 93Y       0.002900
      9 C23         -8.6240    -0.6540     1.4610 ca         1 93Y      -0.020000
     10 C24          8.4330     1.2400     1.6380 ca         1 93Y      -0.020000
     11 C25         -8.9410     0.1630     2.5370 ca         1 93Y      -0.142000
     12 C26          8.6010     2.6010     1.4380 ca         1 93Y      -0.142000
     13 C27          3.3330    -1.2600    -0.4200 c3         1 93Y       0.112000
     14 C28         -3.0200    -1.2130     0.0840 c3         1 93Y       0.112000
     15 C29         -8.9800     1.5400     2.3910 ca         1 93Y      -0.067500
     16 C30          8.8470     3.1030     0.1680 ca         1 93Y      -0.067500
     17 C31         -1.7130    -1.1060    -0.6850 c3         1 93Y      -0.095400
     18 C32          2.0290    -1.3740     0.3530 c3         1 93Y      -0.095400
     19 C33         -0.5000    -1.3030     0.2140 c3         1 93Y      -0.072400
     20 C34          0.8150    -1.1900    -0.5460 c3         1 93Y      -0.072400
     21 N17         -4.1410    -0.9720    -0.8030 ns         1 93Y      -0.575400
     22 N18          4.4590    -1.4670     0.4700 ns         1 93Y      -0.575400
     23 N3           6.6740    -1.5470     1.0540 ns         1 93Y      -0.675300
     24 N4          -6.3500    -0.8700    -1.4030 ns         1 93Y      -0.675300
     25 O10          8.7030    -2.0470    -0.3980 o          1 93Y      -0.596300
     26 O11          8.8990    -1.6940     2.0780 o          1 93Y      -0.596300
     27 O12         -8.2750    -2.4470    -0.8480 o          1 93Y      -0.596300
     28 O15         -5.7410    -1.7810     0.5900 o          1 93Y      -0.608100
     29 O16          6.0520    -0.8160    -1.0090 o          1 93Y      -0.608100
     30 O9          -8.5780    -0.4580    -2.3460 o          1 93Y      -0.596300
     31 S1          -7.9810    -1.0680    -1.1710 sy         1 93Y       1.342400
     32 S2           8.3020    -1.3460     0.8020 sy         1 93Y       1.342400
     33 CL21        -8.7550     3.8200     0.9670 cl         1 93Y      -0.098900
     34 CL22         9.2360     2.8490    -2.4880 cl         1 93Y      -0.098900
     35 H1           8.8090     0.1930    -1.5840 ha         1 93Y       0.171000
     36 H2          -8.1880     1.7670    -0.9020 ha         1 93Y       0.171000
     37 H3          -8.5930    -1.7270     1.5810 ha         1 93Y       0.160000
     38 H4           8.2470     0.8580     2.6320 ha         1 93Y       0.160000
     39 H5          -9.1590    -0.2780     3.5000 ha         1 93Y       0.142000
     40 H6           8.5450     3.2800     2.2770 ha         1 93Y       0.142000
     41 H7           3.3480    -1.9920    -1.2330 h1         1 93Y       0.056200
     42 H8           3.4080    -0.2710    -0.8750 h1         1 93Y       0.056200
     43 H9          -3.1140    -2.2080     0.5210 h1         1 93Y       0.056200
     44 H10         -3.0250    -0.4950     0.9110 h1         1 93Y       0.056200
     45 H11         -9.2260     2.1710     3.2340 ha         1 93Y       0.150000
     46 H12          8.9800     4.1650     0.0180 ha         1 93Y       0.150000
     47 H13         -1.7040    -1.8480    -1.4890 hc         1 93Y       0.045950
     48 H14         -1.6530    -0.1230    -1.1640 hc         1 93Y       0.045950
     49 H15          1.9780    -2.3550     0.8380 hc         1 93Y       0.045950
     50 H16          2.0140    -0.6270     1.1520 hc         1 93Y       0.045950
     51 H17         -0.5180    -0.5620     1.0200 hc         1 93Y       0.044950
     52 H18         -0.5570    -2.2830     0.6990 hc         1 93Y       0.044950
     53 H19          0.8670    -0.2120    -1.0370 hc         1 93Y       0.044950
     54 H20          0.8360    -1.9360    -1.3480 hc         1 93Y       0.044950
     55 H21         -3.9640    -0.4430    -1.6430 hn         1 93Y       0.317000
     56 H22          4.2820    -1.9300     1.3480 hn         1 93Y       0.317000
     57 H23          6.4060    -1.7740     2.0040 hn         1 93Y       0.342000
     58 H24         -6.0900    -0.3520    -2.2340 hn         1 93Y       0.342000
@<TRIPOS>BOND
     1     1    21 1   
     2     1    24 1   
     3     1    28 2   
     4     2    22 1   
     5     2    23 1   
     6     2    29 2   
     7     3     6 ar  
     8     3     9 ar  
     9     3    31 1   
    10     4     5 ar  
    11     4    10 ar  
    12     4    32 1   
    13     5     8 ar  
    14     5    35 1   
    15     6     7 ar  
    16     6    36 1   
    17     7    15 ar  
    18     7    33 1   
    19     8    16 ar  
    20     8    34 1   
    21     9    11 ar  
    22     9    37 1   
    23    10    12 ar  
    24    10    38 1   
    25    11    15 ar  
    26    11    39 1   
    27    12    16 ar  
    28    12    40 1   
    29    13    18 1   
    30    13    22 1   
    31    13    41 1   
    32    13    42 1   
    33    14    17 1   
    34    14    21 1   
    35    14    43 1   
    36    14    44 1   
    37    15    45 1   
    38    16    46 1   
    39    17    19 1   
    40    17    47 1   
    41    17    48 1   
    42    18    20 1   
    43    18    49 1   
    44    18    50 1   
    45    19    20 1   
    46    19    51 1   
    47    19    52 1   
    48    20    53 1   
    49    20    54 1   
    50    21    55 1   
    51    22    56 1   
    52    23    32 1   
    53    23    57 1   
    54    24    31 1   
    55    24    58 1   
    56    25    32 2   
    57    26    32 2   
    58    27    31 2   
    59    30    31 2   
@<TRIPOS>SUBSTRUCTURE
     1 93Y         1 TEMP              0 ****  ****    0 ROOT
