@<TRIPOS>MOLECULE
93Y
   58    59     1     0     0
SMALL
No Charge or Current Charge


@<TRIPOS>ATOM
      1 C5          -5.5520    -1.4450    -0.2890 c          1 93Y       0.677100
      2 C6           5.8210    -1.1640    -0.0840 c          1 93Y       0.677100
      3 C7          -8.5040     0.0310     0.2340 ca         1 93Y      -0.280500
      4 C8           8.6700     0.4290     0.6050 ca         1 93Y      -0.280500
      5 C14          8.8150     1.0180    -0.6720 ca         1 93Y       0.001500
      6 C13         -8.6180     1.4080    -0.0580 ca         1 93Y       0.001500
      7 C19         -8.9100     2.3230     0.9680 ca         1 93Y       0.094500
      8 C20          9.0270     2.4020    -0.7880 ca         1 93Y       0.094500
      9 C23         -8.6780    -0.4190     1.5610 ca         1 93Y      -0.002000
     10 C24          8.7360     1.2390     1.7590 ca         1 93Y      -0.002000
     11 C25         -8.9690     0.5030     2.5820 ca         1 93Y      -0.124000
     12 C26          8.9500     2.6240     1.6340 ca         1 93Y      -0.124000
     13 C27          3.3580    -1.1320    -0.4960 c3         1 93Y       0.112000
     14 C28         -3.0870    -1.5680     0.0860 c3         1 93Y       0.112000
     15 C29         -9.0860     1.8730     2.2870 ca         1 93Y      -0.049500
     16 C30          9.0960     3.2050     0.3620 ca         1 93Y      -0.049500
     17 C31         -1.7850    -1.2280    -0.6640 c3         1 93Y      -0.095400
     18 C32          2.0560    -1.4720     0.2540 c3         1 93Y      -0.095400
     19 C33         -0.5180    -1.5200     0.1690 c3         1 93Y      -0.072400
     20 C34          0.7890    -1.1800    -0.5800 c3         1 93Y      -0.072400
     21 N17         -4.2680    -1.2810    -0.7260 ns         1 93Y      -0.508400
     22 N18          4.5390    -1.4170     0.3170 ns         1 93Y      -0.508400
     23 N3           6.7260    -1.5110     0.8500 ns         1 93Y      -0.608300
     24 N4          -6.4570    -1.1030    -1.2260 ns         1 93Y      -0.608300
     25 O10          8.8040    -2.0010    -0.4840 o          1 93Y      -0.525500
     26 O11          8.8820    -1.7920     2.0660 o          1 93Y      -0.525500
     27 O12         -8.4750    -2.4900    -0.6380 o          1 93Y      -0.525500
     28 O15         -5.8310    -1.8510     0.8230 o          1 93Y      -0.608100
     29 O16          6.0970    -0.6760    -1.1650 o          1 93Y      -0.608100
     30 O9          -8.6190    -0.5960    -2.3540 o          1 93Y      -0.525500
     31 S1          -8.1220    -1.1380    -1.0850 sy         1 93Y       1.200800
     32 S2           8.3860    -1.3440     0.7600 sy         1 93Y       1.200800
     33 Cl21        -9.0520     4.0380     0.6020 cl         1 93Y      -0.190500
     34 Cl22         9.2060     3.1320    -2.3790 cl         1 93Y      -0.190500
     35 H1           8.7580     0.4120    -1.5740 ha         1 93Y       0.153000
     36 H2          -8.4830     1.7760    -1.0740 ha         1 93Y       0.153000
     37 H3          -8.5850    -1.4760     1.8070 ha         1 93Y       0.142000
     38 H4           8.6220     0.8040     2.7510 ha         1 93Y       0.142000
     39 H5          -9.1030     0.1540     3.6040 ha         1 93Y       0.124000
     40 H6           9.0010     3.2460     2.5240 ha         1 93Y       0.124000
     41 H7           3.4150    -1.7200    -1.4220 h1         1 93Y       0.056200
     42 H8           3.3600    -0.0660    -0.7640 h1         1 93Y       0.056200
     43 H9          -3.0910    -2.6340     0.3530 h1         1 93Y       0.056200
     44 H10         -3.1410    -0.9810     1.0130 h1         1 93Y       0.056200
     45 H11         -9.3110     2.5840     3.0780 ha         1 93Y       0.132000
     46 H12          9.2610     4.2760     0.2670 ha         1 93Y       0.132000
     47 H13         -1.7460    -1.8060    -1.5960 hc         1 93Y       0.045950
     48 H14         -1.7980    -0.1670    -0.9420 hc         1 93Y       0.045950
     49 H15          2.0690    -2.5330     0.5320 hc         1 93Y       0.045950
     50 H16          2.0170    -0.8940     1.1850 hc         1 93Y       0.045950
     51 H17         -0.5600    -0.9440     1.1020 hc         1 93Y       0.044950
     52 H18         -0.5080    -2.5810     0.4490 hc         1 93Y       0.044950
     53 H19          0.7790    -0.1190    -0.8600 hc         1 93Y       0.044950
     54 H20          0.8310    -1.7570    -1.5120 hc         1 93Y       0.044950
     55 H21         -4.1360    -0.9390    -1.6680 hn         1 93Y       0.317000
     56 H22          4.4090    -1.8260     1.2320 hn         1 93Y       0.317000
     57 H23          6.4360    -1.8880     1.7340 hn         1 93Y       0.342000
     58 H24         -6.1660    -0.7530    -2.1210 hn         1 93Y       0.342000
@<TRIPOS>BOND
     1     1    21 1   
     2     1    24 1   
     3     1    28 2   
     4     2    22 1   
     5     2    23 1   
     6     2    29 2   
     7     3     6 ar  
     8     3     9 ar  
     9     3    31 1   
    10     4     5 ar  
    11     4    10 ar  
    12     4    32 1   
    13     5     8 ar  
    14     5    35 1   
    15     6     7 ar  
    16     6    36 1   
    17     7    15 ar  
    18     7    33 1   
    19     8    16 ar  
    20     8    34 1   
    21     9    11 ar  
    22     9    37 1   
    23    10    12 ar  
    24    10    38 1   
    25    11    15 ar  
    26    11    39 1   
    27    12    16 ar  
    28    12    40 1   
    29    13    18 1   
    30    13    22 1   
    31    13    41 1   
    32    13    42 1   
    33    14    17 1   
    34    14    21 1   
    35    14    43 1   
    36    14    44 1   
    37    15    45 1   
    38    16    46 1   
    39    17    19 1   
    40    17    47 1   
    41    17    48 1   
    42    18    20 1   
    43    18    49 1   
    44    18    50 1   
    45    19    20 1   
    46    19    51 1   
    47    19    52 1   
    48    20    53 1   
    49    20    54 1   
    50    21    55 1   
    51    22    56 1   
    52    23    32 1   
    53    23    57 1   
    54    24    31 1   
    55    24    58 1   
    56    25    32 2   
    57    26    32 2   
    58    27    31 2   
    59    30    31 2   
@<TRIPOS>SUBSTRUCTURE
     1 93Y         1 TEMP              0 ****  ****    0 ROOT
