@<TRIPOS>MOLECULE
93Z
   30    30     1     0     0
SMALL
bcc


@<TRIPOS>ATOM
      1 C4          -2.1900     0.6550     0.3340 c6         1 93Z       0.156100
      2 C5          -0.8580     1.0570    -0.3030 c6         1 93Z      -0.074700
      3 C6           0.1880    -0.0380    -0.0330 c6         1 93Z       0.219100
      4 C3          -2.6600    -0.7030    -0.1750 c6         1 93Z       0.079100
      5 C2          -1.6140    -1.7640     0.1180 c6         1 93Z       0.070100
      6 C1          -0.2870    -1.3960    -0.5340 c6         1 93Z       0.135100
      7 C8          -0.3700     2.4170     0.1960 c3         1 93Z       0.150400
      8 O7           1.3880     0.2960    -0.7200 os         1 93Z      -0.570500
      9 O9          -1.0830     3.4560    -0.4390 oh         1 93Z      -0.599800
     10 O10         -3.1550     1.6410     0.0690 oh         1 93Z      -0.573800
     11 O11         -3.8840    -0.9880     0.4710 oh         1 93Z      -0.618800
     12 O12         -1.9990    -3.0270    -0.3880 oh         1 93Z      -0.612800
     13 S13          2.8160     0.4420     0.0930 s6         1 93Z       1.497300
     14 O14          3.5680     1.2700    -0.8490 o          1 93Z      -0.703867
     15 O15          2.4890     1.1020     1.3620 o          1 93Z      -0.703867
     16 O16          3.3450    -0.9100     0.2550 o          1 93Z      -0.703867
     17 H1          -2.0240     0.5640     1.4220 h1         1 93Z       0.035700
     18 H2          -0.9940     1.1280    -1.3890 hc         1 93Z       0.078700
     19 H3           0.3670    -0.1020     1.0480 h1         1 93Z       0.059700
     20 H4          -2.8060    -0.6360    -1.2630 h1         1 93Z       0.054700
     21 H5          -1.4610    -1.8210     1.2060 h1         1 93Z       0.053700
     22 H6          -0.4510    -1.3160    -1.6230 h1         1 93Z       0.047700
     23 H8          -0.4790     2.4580     1.2900 h1         1 93Z       0.040700
     24 H9           0.6970     2.5170    -0.0120 h1         1 93Z       0.040700
     25 H10         -0.6010     4.2720    -0.2800 ho         1 93Z       0.391000
     26 H11         -3.9970     1.3060     0.3980 ho         1 93Z       0.399000
     27 H12         -4.3660    -1.6390    -0.0460 ho         1 93Z       0.404000
     28 H13         -2.4920    -3.4970     0.2900 ho         1 93Z       0.400000
     29 O1           0.6950    -2.3530    -0.2450 oh         1 93Z      -0.548800
     30 H14          0.3130    -3.2170    -0.4380 ho         1 93Z       0.397000
@<TRIPOS>BOND
     1     1     2 1   
     2     1     4 1   
     3     1    10 1   
     4     1    17 1   
     5     2     3 1   
     6     2     7 1   
     7     2    18 1   
     8     3     6 1   
     9     3     8 1   
    10     3    19 1   
    11     4     5 1   
    12     4    11 1   
    13     4    20 1   
    14     5     6 1   
    15     5    12 1   
    16     5    21 1   
    17     6    22 1   
    18     6    29 1   
    19     7     9 1   
    20     7    23 1   
    21     7    24 1   
    22     8    13 1   
    23     9    25 1   
    24    10    26 1   
    25    11    27 1   
    26    12    28 1   
    27    13    14 1   
    28    13    15 1   
    29    13    16 1   
    30    29    30 1   
@<TRIPOS>SUBSTRUCTURE
     1 93Z         1 TEMP              0 ****  ****    0 ROOT
