@<TRIPOS>MOLECULE
93Z
   30    30     1     0     0
SMALL
No Charge or Current Charge


@<TRIPOS>ATOM
      1 C4          -2.1710     0.6680     0.3630 c6         1 93Z       0.179300
      2 C5          -0.8260     1.0850    -0.3310 c6         1 93Z      -0.074700
      3 C6           0.2600    -0.0230    -0.0660 c6         1 93Z       0.242300
      4 C3          -2.6760    -0.7170    -0.1410 c6         1 93Z       0.102300
      5 C2          -1.5970    -1.8030     0.1220 c6         1 93Z       0.093300
      6 C1          -0.2860    -1.3980    -0.6080 c6         1 93Z       0.158300
      7 C8          -0.3200     2.4960     0.1260 c3         1 93Z       0.173600
      8 O7           1.4970     0.3200    -0.7380 os         1 93Z      -0.593700
      9 O9          -1.0700     3.5830    -0.4390 oh         1 93Z      -0.662000
     10 O10         -3.2340     1.5990     0.1430 oh         1 93Z      -0.696000
     11 O11         -3.9280    -1.0450     0.5020 oh         1 93Z      -0.741000
     12 O12         -2.0320    -3.1030    -0.3380 oh         1 93Z      -0.735000
     13 S13          2.8720     0.4820     0.1540 s6         1 93Z       1.497300
     14 O14          3.8250     1.0920    -0.7850 o          1 93Z      -0.703867
     15 O15          2.4810     1.3540     1.2700 o          1 93Z      -0.703867
     16 O16          3.2160    -0.8860     0.5590 o          1 93Z      -0.703867
     17 H1          -1.9820     0.5870     1.4440 h1         1 93Z       0.035700
     18 H2          -0.9890     1.1520    -1.4150 hc         1 93Z       0.078700
     19 H3           0.4260    -0.1150     1.0180 h1         1 93Z       0.059700
     20 H4          -2.8280    -0.6460    -1.2300 h1         1 93Z       0.054700
     21 H5          -1.3930    -1.8360     1.2040 h1         1 93Z       0.053700
     22 H6          -0.5220    -1.2660    -1.6750 h1         1 93Z       0.047700
     23 H8          -0.3420     2.5390     1.2240 h1         1 93Z       0.040700
     24 H9           0.7260     2.6140    -0.1810 h1         1 93Z       0.040700
     25 H10         -0.7120     4.4110    -0.0490 ho         1 93Z       0.430000
     26 H11         -4.0410     1.0540     0.3090 ho         1 93Z       0.498000
     27 H12         -4.3240    -1.7890    -0.0130 ho         1 93Z       0.503000
     28 H13         -2.6340    -3.4660     0.3540 ho         1 93Z       0.499000
     29 O1           0.6420    -2.4860    -0.4700 oh         1 93Z      -0.671000
     30 H14          0.0580    -3.2810    -0.4970 ho         1 93Z       0.496000
@<TRIPOS>BOND
     1     1     2 1   
     2     1     4 1   
     3     1    10 1   
     4     1    17 1   
     5     2     3 1   
     6     2     7 1   
     7     2    18 1   
     8     3     6 1   
     9     3     8 1   
    10     3    19 1   
    11     4     5 1   
    12     4    11 1   
    13     4    20 1   
    14     5     6 1   
    15     5    12 1   
    16     5    21 1   
    17     6    22 1   
    18     6    29 1   
    19     7     9 1   
    20     7    23 1   
    21     7    24 1   
    22     8    13 1   
    23     9    25 1   
    24    10    26 1   
    25    11    27 1   
    26    12    28 1   
    27    13    14 1   
    28    13    15 1   
    29    13    16 1   
    30    29    30 1   
@<TRIPOS>SUBSTRUCTURE
     1 93Z         1 TEMP              0 ****  ****    0 ROOT
