@<TRIPOS>MOLECULE
940
   77    80     1     0     0
SMALL
abcg2


@<TRIPOS>ATOM
      1 O6          37.7940   -35.2970   -25.7000 o          1 940      -0.548500
      2 S           38.4950   -36.0630   -26.7200 s6         1 940       1.209100
      3 O5          38.2350   -37.4920   -26.8430 o          1 940      -0.548500
      4 C31         40.2450   -35.8710   -26.4860 c3         1 940      -0.357100
      5 N2          38.2100   -35.3290   -28.1740 nu         1 940      -0.930100
      6 C30         37.2870   -34.2510   -28.2890 ca         1 940       0.263000
      7 C28         35.9360   -34.5120   -28.5160 ca         1 940      -0.046300
      8 C29         35.4910   -35.9470   -28.6120 c3         1 940      -0.054800
      9 C9          37.7850   -32.9530   -28.1950 cp         1 940      -0.055000
     10 C5          39.2310   -32.7350   -27.9460 cp         1 940      -0.009000
     11 C4          39.6790   -32.2690   -26.7170 ca         1 940      -0.107000
     12 C3          41.0350   -32.0530   -26.5060 ca         1 940      -0.121000
     13 C2          41.9730   -32.2940   -27.5040 ca         1 940      -0.091300
     14 C1          43.4320   -32.0450   -27.2590 c3         1 940      -0.040800
     15 C7          41.5280   -32.7680   -28.7470 ca         1 940      -0.089300
     16 C8          42.5040   -33.0410   -29.8540 c3         1 940      -0.041800
     17 C6          40.1700   -32.9800   -28.9450 ca         1 940      -0.089000
     18 C10         36.9160   -31.8710   -28.3480 ca         1 940      -0.055300
     19 C11         37.4480   -30.4630   -28.3060 c3         1 940      -0.042800
     20 C12         35.5510   -32.1200   -28.5540 cp         1 940      -0.033000
     21 C21         35.0550   -33.4290   -28.6310 ca         1 940       0.009700
     22 C22         33.5640   -33.6790   -28.7500 c3         1 940       0.045600
     23 O2          33.0770   -34.5290   -27.7410 os         1 940      -0.427000
     24 C23         32.7700   -34.0160   -26.4480 c3         1 940       0.185000
     25 C26         31.8080   -32.8300   -26.5120 c3         1 940      -0.101767
     26 C25         32.0770   -35.1840   -25.7480 c3         1 940      -0.101767
     27 C24         34.0220   -33.6360   -25.6550 c3         1 940      -0.101767
     28 C27         33.1840   -34.2450   -30.1520 c          1 940       0.733000
     29 O4          33.7910   -33.7240   -31.1080 o          1 940      -0.708500
     30 O3          32.3010   -35.1140   -30.2020 o          1 940      -0.708500
     31 C13         34.6400   -30.9490   -28.6790 cp         1 940      -0.016000
     32 C20         34.3440   -30.1610   -27.5710 ca         1 940      -0.118000
     33 C19         33.5250   -29.0480   -27.7060 ca         1 940      -0.123000
     34 C16         33.0110   -28.6930   -28.9430 ca         1 940       0.060100
     35 C15         33.3040   -29.4710   -30.0740 ca         1 940       0.218000
     36 C14         34.1150   -30.5940   -29.9160 ca         1 940      -0.105000
     37 O1          32.2400   -27.5770   -29.0250 os         1 940      -0.353100
     38 C17         31.4650   -27.4480   -30.2070 c6         1 940       0.154600
     39 C18         32.2900   -27.7730   -31.4350 c6         1 940       0.165800
     40 N1          32.7660   -29.1280   -31.3000 nu         1 940      -0.931200
     41 H1          40.5120   -36.3540   -25.5470 h1         1 940       0.098033
     42 H2          40.7650   -36.3530   -27.3110 h1         1 940       0.098033
     43 H3          40.4950   -34.8130   -26.4510 h1         1 940       0.098033
     44 H4          38.2670   -35.9700   -28.9560 hn         1 940       0.496000
     45 H5          36.1610   -36.5260   -29.2480 hc         1 940       0.054033
     46 H6          35.4910   -36.4250   -27.6300 hc         1 940       0.054033
     47 H7          34.4920   -36.0610   -29.0150 hc         1 940       0.054033
     48 H8          38.9710   -32.0750   -25.9210 ha         1 940       0.128000
     49 H9          41.3700   -31.6900   -25.5410 ha         1 940       0.104000
     50 H10         43.8330   -31.2970   -27.9460 hc         1 940       0.034033
     51 H11         43.6080   -31.6900   -26.2440 hc         1 940       0.034033
     52 H12         44.0260   -32.9500   -27.4030 hc         1 940       0.034033
     53 H13         43.0530   -32.1400   -30.1360 hc         1 940       0.036033
     54 H14         43.2500   -33.7820   -29.5600 hc         1 940       0.036033
     55 H15         41.9980   -33.4130   -30.7440 hc         1 940       0.036033
     56 H16         39.8300   -33.3440   -29.9080 ha         1 940       0.121000
     57 H17         37.4200   -30.0520   -27.2940 hc         1 940       0.038033
     58 H18         38.4830   -30.4190   -28.6380 hc         1 940       0.038033
     59 H19         36.8640   -29.7960   -28.9370 hc         1 940       0.038033
     60 H20         33.0550   -32.7100   -28.7010 h1         1 940       0.041700
     61 H21         31.4740   -32.5720   -25.5060 hc         1 940       0.033589
     62 H22         32.2690   -31.9360   -26.9340 hc         1 940       0.033589
     63 H23         30.9240   -33.0750   -27.1040 hc         1 940       0.033589
     64 H24         31.8020   -34.9100   -24.7300 hc         1 940       0.033589
     65 H25         31.1670   -35.4740   -26.2760 hc         1 940       0.033589
     66 H26         32.7350   -36.0540   -25.6950 hc         1 940       0.033589
     67 H27         33.7460   -33.3890   -24.6280 hc         1 940       0.033589
     68 H28         34.7330   -34.4630   -25.6210 hc         1 940       0.033589
     69 H29         34.5350   -32.7700   -26.0710 hc         1 940       0.033589
     70 H31         34.7480   -30.4120   -26.5990 ha         1 940       0.114000
     71 H32         33.2890   -28.4360   -26.8440 ha         1 940       0.112000
     72 H33         34.3260   -31.2130   -30.7800 ha         1 940       0.161000
     73 H34         31.1130   -26.4180   -30.2380 h1         1 940       0.053200
     74 H35         30.5930   -28.1090   -30.1600 h1         1 940       0.053200
     75 H36         33.1020   -27.0410   -31.5390 h1         1 940       0.035700
     76 H37         31.6600   -27.6930   -32.3210 h1         1 940       0.035700
     77 H38         33.2570   -29.4960   -32.1000 hn         1 940       0.473000
@<TRIPOS>BOND
     1     1     2 2   
     2     2     3 2   
     3     2     4 1   
     4     2     5 1   
     5     4    41 1   
     6     4    42 1   
     7     4    43 1   
     8     5     6 1   
     9     5    44 1   
    10     6     7 ar  
    11     6     9 ar  
    12     7     8 1   
    13     7    21 ar  
    14     8    45 1   
    15     8    46 1   
    16     8    47 1   
    17     9    10 1   
    18     9    18 ar  
    19    10    11 ar  
    20    10    17 ar  
    21    11    12 ar  
    22    11    48 1   
    23    12    13 ar  
    24    12    49 1   
    25    13    14 1   
    26    13    15 ar  
    27    14    50 1   
    28    14    51 1   
    29    14    52 1   
    30    15    16 1   
    31    15    17 ar  
    32    16    53 1   
    33    16    54 1   
    34    16    55 1   
    35    17    56 1   
    36    18    19 1   
    37    18    20 ar  
    38    19    57 1   
    39    19    58 1   
    40    19    59 1   
    41    20    21 ar  
    42    20    31 1   
    43    21    22 1   
    44    22    23 1   
    45    22    28 1   
    46    22    60 1   
    47    23    24 1   
    48    24    25 1   
    49    24    26 1   
    50    24    27 1   
    51    25    61 1   
    52    25    62 1   
    53    25    63 1   
    54    26    64 1   
    55    26    65 1   
    56    26    66 1   
    57    27    67 1   
    58    27    68 1   
    59    27    69 1   
    60    28    29 1   
    61    28    30 1   
    62    31    32 ar  
    63    31    36 ar  
    64    32    33 ar  
    65    32    70 1   
    66    33    34 ar  
    67    33    71 1   
    68    34    35 ar  
    69    34    37 1   
    70    35    36 ar  
    71    35    40 1   
    72    36    72 1   
    73    37    38 1   
    74    38    39 1   
    75    38    73 1   
    76    38    74 1   
    77    39    40 1   
    78    39    75 1   
    79    39    76 1   
    80    40    77 1   
@<TRIPOS>SUBSTRUCTURE
     1 940         1 TEMP              0 ****  ****    0 ROOT
