@<TRIPOS>MOLECULE
940
   77    80     1     0     0
SMALL
No Charge or Current Charge


@<TRIPOS>ATOM
      1 O6          38.7880   -34.7380   -25.6190 o          1 940      -0.548500
      2 S           38.6270   -35.8750   -26.5260 s6         1 940       1.209100
      3 O5          37.6060   -36.8910   -26.2760 o          1 940      -0.548500
      4 C31         40.1920   -36.6900   -26.7550 c3         1 940      -0.357100
      5 N2          38.2610   -35.2650   -28.0230 nu         1 940      -0.930100
      6 C30         37.3660   -34.2070   -28.2330 ca         1 940       0.263000
      7 C28         35.9980   -34.4710   -28.5120 ca         1 940      -0.046300
      8 C29         35.5150   -35.9320   -28.6220 c3         1 940      -0.054800
      9 C9          37.8580   -32.8730   -28.1730 cp         1 940      -0.055000
     10 C5          39.3180   -32.6110   -27.9350 cp         1 940      -0.009000
     11 C4          39.7560   -31.9090   -26.7890 ca         1 940      -0.107000
     12 C3          41.1210   -31.6640   -26.5700 ca         1 940      -0.121000
     13 C2          42.0860   -32.1170   -27.4900 ca         1 940      -0.091300
     14 C1          43.5630   -31.8400   -27.2220 c3         1 940      -0.040800
     15 C7          41.6690   -32.8230   -28.6430 ca         1 940      -0.089300
     16 C8          42.6790   -33.3380   -29.6650 c3         1 940      -0.041800
     17 C6          40.2950   -33.0590   -28.8530 ca         1 940      -0.089000
     18 C10         36.9540   -31.7950   -28.3640 ca         1 940      -0.055300
     19 C11         37.4730   -30.3480   -28.3630 c3         1 940      -0.042800
     20 C12         35.5690   -32.0390   -28.5660 cp         1 940      -0.033000
     21 C21         35.0840   -33.3820   -28.6380 ca         1 940       0.009700
     22 C22         33.5630   -33.6310   -28.8280 c3         1 940       0.045600
     23 O2          33.0340   -34.5470   -27.8070 os         1 940      -0.427000
     24 C23         32.7430   -34.0830   -26.4600 c3         1 940       0.185000
     25 C26         31.7070   -32.9290   -26.5170 c3         1 940      -0.101767
     26 C25         32.1270   -35.3140   -25.7560 c3         1 940      -0.101767
     27 C24         34.0460   -33.6640   -25.7340 c3         1 940      -0.101767
     28 C27         33.2370   -34.1040   -30.2930 c          1 940       0.733000
     29 O4          33.8160   -33.5570   -31.2230 o          1 940      -0.708500
     30 O3          32.4270   -35.0080   -30.4690 o          1 940      -0.708500
     31 C13         34.6350   -30.8750   -28.6820 cp         1 940      -0.016000
     32 C20         34.2750   -30.1240   -27.5360 ca         1 940      -0.118000
     33 C19         33.3990   -29.0300   -27.6320 ca         1 940      -0.123000
     34 C16         32.8670   -28.6660   -28.8790 ca         1 940       0.060100
     35 C15         33.2360   -29.3900   -30.0450 ca         1 940       0.218000
     36 C14         34.1130   -30.4810   -29.9370 ca         1 940      -0.105000
     37 O1          32.0130   -27.5740   -28.9520 os         1 940      -0.353100
     38 C17         31.2320   -27.3860   -30.1650 c6         1 940       0.154600
     39 C18         32.0690   -27.6830   -31.4440 c6         1 940       0.165800
     40 N1          32.7340   -28.9930   -31.2930 nu         1 940      -0.931200
     41 H1          40.4850   -37.1150   -25.7900 h1         1 940       0.098033
     42 H2          40.0570   -37.4710   -27.5100 h1         1 940       0.098033
     43 H3          40.9070   -35.9310   -27.0900 h1         1 940       0.098033
     44 H4          37.9670   -36.1170   -28.4750 hn         1 940       0.496000
     45 H5          36.2800   -36.6010   -29.0290 hc         1 940       0.054033
     46 H6          35.2190   -36.3190   -27.6410 hc         1 940       0.054033
     47 H7          34.6610   -36.0510   -29.2920 hc         1 940       0.054033
     48 H8          39.0260   -31.5620   -26.0620 ha         1 940       0.128000
     49 H9          41.4270   -31.1230   -25.6770 ha         1 940       0.104000
     50 H10         44.0060   -31.2470   -28.0310 hc         1 940       0.034033
     51 H11         43.7100   -31.2810   -26.2900 hc         1 940       0.034033
     52 H12         44.1300   -32.7740   -27.1360 hc         1 940       0.034033
     53 H13         43.2590   -32.5140   -30.0970 hc         1 940       0.036033
     54 H14         43.3830   -34.0410   -29.2040 hc         1 940       0.036033
     55 H15         42.1900   -33.8630   -30.4940 hc         1 940       0.036033
     56 H16         39.9700   -33.6030   -29.7370 ha         1 940       0.121000
     57 H17         37.4290   -29.9180   -27.3570 hc         1 940       0.038033
     58 H18         38.5090   -30.2770   -28.7140 hc         1 940       0.038033
     59 H19         36.8960   -29.6990   -29.0300 hc         1 940       0.038033
     60 H20         33.0220   -32.6850   -28.7560 h1         1 940       0.041700
     61 H21         31.3000   -32.7310   -25.5180 hc         1 940       0.033589
     62 H22         32.1580   -31.9960   -26.8720 hc         1 940       0.033589
     63 H23         30.8710   -33.1860   -27.1780 hc         1 940       0.033589
     64 H24         31.8590   -35.0770   -24.7190 hc         1 940       0.033589
     65 H25         31.2190   -35.6460   -26.2740 hc         1 940       0.033589
     66 H26         32.8370   -36.1500   -25.7410 hc         1 940       0.033589
     67 H27         33.8560   -33.5190   -24.6640 hc         1 940       0.033589
     68 H28         34.8200   -34.4330   -25.8360 hc         1 940       0.033589
     69 H29         34.4380   -32.7180   -26.1190 hc         1 940       0.033589
     70 H31         34.6840   -30.3960   -26.5660 ha         1 940       0.114000
     71 H32         33.1320   -28.4670   -26.7420 ha         1 940       0.112000
     72 H33         34.4010   -31.0270   -30.8300 ha         1 940       0.161000
     73 H34         30.8410   -26.3590   -30.1900 h1         1 940       0.053200
     74 H35         30.3750   -28.0730   -30.1330 h1         1 940       0.053200
     75 H36         32.8230   -26.8900   -31.5590 h1         1 940       0.035700
     76 H37         31.4260   -27.6650   -32.3360 h1         1 940       0.035700
     77 H38         33.0910   -29.4750   -32.1220 hn         1 940       0.473000
@<TRIPOS>BOND
     1     1     2 2   
     2     2     3 2   
     3     2     4 1   
     4     2     5 1   
     5     4    41 1   
     6     4    42 1   
     7     4    43 1   
     8     5     6 1   
     9     5    44 1   
    10     6     7 ar  
    11     6     9 ar  
    12     7     8 1   
    13     7    21 ar  
    14     8    45 1   
    15     8    46 1   
    16     8    47 1   
    17     9    10 1   
    18     9    18 ar  
    19    10    11 ar  
    20    10    17 ar  
    21    11    12 ar  
    22    11    48 1   
    23    12    13 ar  
    24    12    49 1   
    25    13    14 1   
    26    13    15 ar  
    27    14    50 1   
    28    14    51 1   
    29    14    52 1   
    30    15    16 1   
    31    15    17 ar  
    32    16    53 1   
    33    16    54 1   
    34    16    55 1   
    35    17    56 1   
    36    18    19 1   
    37    18    20 ar  
    38    19    57 1   
    39    19    58 1   
    40    19    59 1   
    41    20    21 ar  
    42    20    31 1   
    43    21    22 1   
    44    22    23 1   
    45    22    28 1   
    46    22    60 1   
    47    23    24 1   
    48    24    25 1   
    49    24    26 1   
    50    24    27 1   
    51    25    61 1   
    52    25    62 1   
    53    25    63 1   
    54    26    64 1   
    55    26    65 1   
    56    26    66 1   
    57    27    67 1   
    58    27    68 1   
    59    27    69 1   
    60    28    29 1   
    61    28    30 1   
    62    31    32 ar  
    63    31    36 ar  
    64    32    33 ar  
    65    32    70 1   
    66    33    34 ar  
    67    33    71 1   
    68    34    35 ar  
    69    34    37 1   
    70    35    36 ar  
    71    35    40 1   
    72    36    72 1   
    73    37    38 1   
    74    38    39 1   
    75    38    73 1   
    76    38    74 1   
    77    39    40 1   
    78    39    75 1   
    79    39    76 1   
    80    40    77 1   
@<TRIPOS>SUBSTRUCTURE
     1 940         1 TEMP              0 ****  ****    0 ROOT
