@<TRIPOS>MOLECULE
941
   77    78     1     0     0
SMALL
abcg2


@<TRIPOS>ATOM
      1 C1          -5.3260    -0.4350    -0.4150 ca         1 941      -0.199500
      2 C2          -5.7650    -1.1270     0.7140 ca         1 941       0.222100
      3 C3          -4.8190    -1.5170     1.6690 ca         1 941      -0.199500
      4 C4          -3.4820    -1.2100     1.5030 ca         1 941      -0.074000
      5 C5          -3.0320    -0.5030     0.3870 ca         1 941      -0.219300
      6 C6          -3.9760    -0.1360    -0.5610 ca         1 941      -0.074000
      7 C9          -1.2360     1.0950     1.1470 c3         1 941       0.069700
      8 N1          -2.2080     2.1490     1.0970 ns         1 941      -0.473900
      9 C10         -2.4550     2.8520    -0.0240 c          1 941       0.668100
     10 C11          0.1760     1.6620     0.9290 c          1 941       0.589100
     11 N2           1.1330     0.7630     0.6640 ns         1 941      -0.515900
     12 C12          2.5310     1.1250     0.5490 c3         1 941       0.110000
     13 C13          3.3750    -0.1150     0.3030 c3         1 941      -0.096400
     14 C14          5.6780    -1.0300    -0.0230 c3         1 941       0.163600
     15 C15          4.8570     0.2210     0.2000 c3         1 941      -0.079400
     16 O1           7.0470    -0.6570    -0.0840 os         1 941      -0.337100
     17 O4          -1.9070     2.6490    -1.0890 o          1 941      -0.560000
     18 O9          -3.3740     3.7890     0.2150 os         1 941      -0.477100
     19 C8          -8.0550    -1.0040     0.0950 c3         1 941      -0.129700
     20 O8           0.4130     2.8530     1.0480 o          1 941      -0.609100
     21 C7          -1.5890    -0.1120     0.2480 c3         1 941      -0.009100
     22 C16         -8.0120    -1.7660    -1.2490 c          1 941       0.735500
     23 C24         -9.4260    -1.2420     0.7680 c          1 941       0.735500
     24 O6         -10.4070    -0.9670     0.0500 o          1 941      -0.741250
     25 O7          -9.4380    -1.6670     1.9330 o          1 941      -0.741250
     26 C32          7.9800    -1.6120    -0.1970 ca         1 941       0.232100
     27 C33          7.6990    -2.9700    -0.3260 ca         1 941      -0.245000
     28 C34          8.7520    -3.8630    -0.4650 ca         1 941      -0.011000
     29 C35         10.0680    -3.4400    -0.4890 ca         1 941      -0.260000
     30 C36         10.3460    -2.0800    -0.3720 ca         1 941       0.213100
     31 C37          9.3070    -1.1640    -0.2140 ca         1 941      -0.212600
     32 C38          9.6130     0.2900    -0.1090 c          1 941       0.634700
     33 O11         10.1630     0.9300    -0.9690 o          1 941      -0.481000
     34 O12          9.2200     0.7920     1.0490 os         1 941      -0.425100
     35 C39          9.3900     2.1960     1.2490 c3         1 941       0.152900
     36 O13         11.5980    -1.5970    -0.3750 oh         1 941      -0.519100
     37 O3          -7.7380    -2.9770    -1.1780 o          1 941      -0.741250
     38 O5          -8.2760    -1.1090    -2.2730 o          1 941      -0.741250
     39 O2          -7.0410    -1.4370     0.9850 os         1 941      -0.257100
     40 C41         -4.0220     4.5450    -0.8400 c3         1 941       0.227000
     41 C42         -4.7920     3.6140    -1.7690 c3         1 941      -0.108100
     42 C43         -4.9970     5.4320    -0.0740 c3         1 941      -0.108100
     43 C44         -3.0280     5.4130    -1.6020 c3         1 941      -0.108100
     44 H1          -6.0120    -0.1280    -1.1920 ha         1 941       0.136000
     45 H3          -5.1470    -2.0630     2.5460 ha         1 941       0.136000
     46 H4          -2.7750    -1.5240     2.2630 ha         1 941       0.078000
     47 H6          -3.6580     0.4030    -1.4460 ha         1 941       0.078000
     48 H9          -1.2490     0.7390     2.1810 h1         1 941       0.059700
     49 HN1         -2.7310     2.3580     1.9300 hn         1 941       0.335500
     50 HN2          0.9000    -0.2140     0.6060 hn         1 941       0.319500
     51 H121         2.8640     1.6240     1.4640 h1         1 941       0.046200
     52 H122         2.6670     1.8360    -0.2700 h1         1 941       0.046200
     53 H131         3.0400    -0.6030    -0.6170 hc         1 941       0.046200
     54 H132         3.2160    -0.8280     1.1180 hc         1 941       0.046200
     55 H141         5.3800    -1.5250    -0.9540 h1         1 941       0.039200
     56 H142         5.5170    -1.7380     0.7970 h1         1 941       0.039200
     57 H151         5.1890     0.7110     1.1190 hc         1 941       0.059700
     58 H152         5.0230     0.9240    -0.6210 hc         1 941       0.059700
     59 H8          -7.9510     0.0740    -0.0870 h1         1 941       0.016700
     60 H71         -1.3580     0.1110    -0.7930 hc         1 941       0.038700
     61 H72         -0.9620    -0.9590     0.5400 hc         1 941       0.038700
     62 H33          6.6840    -3.3400    -0.3260 ha         1 941       0.129000
     63 H34          8.5360    -4.9200    -0.5600 ha         1 941       0.113000
     64 H35         10.8750    -4.1550    -0.5960 ha         1 941       0.115000
     65 H391        10.4420     2.4780     1.2220 h1         1 941       0.045367
     66 H392         8.8440     2.7730     0.5020 h1         1 941       0.045367
     67 H393         8.9850     2.4070     2.2340 h1         1 941       0.045367
     68 H13         12.2350    -2.3150    -0.4690 ho         1 941       0.466000
     69 H421        -5.4660     2.9670    -1.2030 hc         1 941       0.047144
     70 H422        -5.3990     4.2070    -2.4540 hc         1 941       0.047144
     71 H423        -4.1330     2.9880    -2.3670 hc         1 941       0.047144
     72 H431        -4.4720     6.1070     0.6040 hc         1 941       0.047144
     73 H432        -5.5700     6.0410    -0.7730 hc         1 941       0.047144
     74 H433        -5.7020     4.8380     0.5070 hc         1 941       0.047144
     75 H441        -2.3580     4.8270    -2.2270 hc         1 941       0.047144
     76 H442        -3.5770     6.0980    -2.2510 hc         1 941       0.047144
     77 H443        -2.4300     6.0150    -0.9170 hc         1 941       0.047144
@<TRIPOS>BOND
     1     1     2 ar  
     2     1     6 ar  
     3     1    44 1   
     4     2     3 ar  
     5     2    39 1   
     6     3     4 ar  
     7     3    45 1   
     8     4     5 ar  
     9     4    46 1   
    10     5     6 ar  
    11     5    21 1   
    12     6    47 1   
    13     7     8 1   
    14     7    10 1   
    15     7    21 1   
    16     7    48 1   
    17     8     9 1   
    18     8    49 1   
    19     9    17 2   
    20     9    18 1   
    21    10    11 1   
    22    10    20 2   
    23    11    12 1   
    24    11    50 1   
    25    12    13 1   
    26    12    51 1   
    27    12    52 1   
    28    13    15 1   
    29    13    53 1   
    30    13    54 1   
    31    14    15 1   
    32    14    16 1   
    33    14    55 1   
    34    14    56 1   
    35    15    57 1   
    36    15    58 1   
    37    16    26 1   
    38    18    40 1   
    39    19    22 1   
    40    19    23 1   
    41    19    39 1   
    42    19    59 1   
    43    21    60 1   
    44    21    61 1   
    45    22    37 1   
    46    22    38 1   
    47    23    24 1   
    48    23    25 1   
    49    26    27 ar  
    50    26    31 ar  
    51    27    28 ar  
    52    27    62 1   
    53    28    29 ar  
    54    28    63 1   
    55    29    30 ar  
    56    29    64 1   
    57    30    31 ar  
    58    30    36 1   
    59    31    32 1   
    60    32    33 2   
    61    32    34 1   
    62    34    35 1   
    63    35    65 1   
    64    35    66 1   
    65    35    67 1   
    66    36    68 1   
    67    40    41 1   
    68    40    42 1   
    69    40    43 1   
    70    41    69 1   
    71    41    70 1   
    72    41    71 1   
    73    42    72 1   
    74    42    73 1   
    75    42    74 1   
    76    43    75 1   
    77    43    76 1   
    78    43    77 1   
@<TRIPOS>SUBSTRUCTURE
     1 941         1 TEMP              0 ****  ****    0 ROOT
