@<TRIPOS>MOLECULE
941
   77    78     1     0     0
SMALL
No Charge or Current Charge


@<TRIPOS>ATOM
      1 C1          -5.3000    -0.3810    -0.5530 ca         1 941      -0.199500
      2 C2          -5.7730    -0.9720     0.6390 ca         1 941       0.222100
      3 C3          -4.8780    -1.1960     1.6980 ca         1 941      -0.199500
      4 C4          -3.5240    -0.8430     1.5760 ca         1 941      -0.074000
      5 C5          -3.0510    -0.2570     0.3870 ca         1 941      -0.219300
      6 C6          -3.9460    -0.0300    -0.6760 ca         1 941      -0.074000
      7 C9          -1.2030     1.3590     1.1650 c3         1 941       0.069700
      8 N1          -2.1920     2.4610     1.0970 ns         1 941      -0.473900
      9 C10         -2.5940     3.0990    -0.0430 c          1 941       0.668100
     10 C11          0.2570     1.8720     0.9410 c          1 941       0.589100
     11 N2           1.2300     0.8940     0.8790 ns         1 941      -0.515900
     12 C12          2.6530     1.1580     0.6710 c3         1 941       0.110000
     13 C13          3.4580    -0.1490     0.5430 c3         1 941      -0.096400
     14 C14          5.7750    -1.2110     0.1930 c3         1 941       0.163600
     15 C15          4.9670     0.0950     0.3210 c3         1 941      -0.079400
     16 O1           7.1510    -0.8490    -0.0050 os         1 941      -0.337100
     17 O4          -2.1170     2.9230    -1.1530 o          1 941      -0.560000
     18 O9          -3.6260     3.9340     0.2910 os         1 941      -0.477100
     19 C8          -8.1010    -1.2390    -0.2300 c3         1 941      -0.129700
     20 O8           0.5520     3.0580     0.8360 o          1 941      -0.609100
     21 C7          -1.5820     0.1470     0.2620 c3         1 941      -0.009100
     22 C16         -7.8780    -2.2740    -1.3440 c          1 941       0.735500
     23 C24         -9.5160    -1.5160     0.3000 c          1 941       0.735500
     24 O6         -10.4660    -1.1120    -0.3550 o          1 941      -0.741250
     25 O7          -9.6530    -2.0280     1.4050 o          1 941      -0.741250
     26 C32          8.1530    -1.7880    -0.1440 ca         1 941       0.232100
     27 C33          7.8820    -3.1740    -0.1390 ca         1 941      -0.245000
     28 C34          8.9230    -4.0990    -0.3090 ca         1 941      -0.011000
     29 C35         10.2370    -3.6440    -0.4850 ca         1 941      -0.260000
     30 C36         10.5120    -2.2690    -0.4920 ca         1 941       0.213100
     31 C37          9.4740    -1.3390    -0.3190 ca         1 941      -0.212600
     32 C38          9.7650     0.1220    -0.3250 c          1 941       0.634700
     33 O11         10.1700     0.7180    -1.3160 o          1 941      -0.481000
     34 O12          9.4900     0.7260     0.8770 os         1 941      -0.425100
     35 C39          9.7000     2.1450     0.9840 c3         1 941       0.152900
     36 O13         11.7990    -1.8540    -0.6460 oh         1 941      -0.519100
     37 O3          -7.2990    -3.3200    -1.0800 o          1 941      -0.741250
     38 O5          -8.1940    -1.9670    -2.4860 o          1 941      -0.741250
     39 O2          -7.0970    -1.3280     0.8270 os         1 941      -0.257100
     40 C41         -4.3670     4.6840    -0.6980 c3         1 941       0.227000
     41 C42         -5.0630     3.7020    -1.6770 c3         1 941      -0.108100
     42 C43         -5.4300     5.4490     0.1220 c3         1 941      -0.108100
     43 C44         -3.4260     5.6900    -1.4110 c3         1 941      -0.108100
     44 H1          -5.9670    -0.1850    -1.3860 ha         1 941       0.136000
     45 H3          -5.2390    -1.6450     2.6190 ha         1 941       0.136000
     46 H4          -2.8440    -1.0220     2.4060 ha         1 941       0.078000
     47 H6          -3.5950     0.4280    -1.5980 ha         1 941       0.078000
     48 H9          -1.2210     0.9930     2.1990 h1         1 941       0.059700
     49 HN1         -2.6970     2.7170     1.9340 hn         1 941       0.335500
     50 HN2          0.9280    -0.0660     0.9860 hn         1 941       0.319500
     51 H121         3.0320     1.7440     1.5190 h1         1 941       0.046200
     52 H122         2.7730     1.7540    -0.2440 h1         1 941       0.046200
     53 H131         3.0590    -0.7360    -0.2940 hc         1 941       0.046200
     54 H132         3.3190    -0.7470     1.4530 hc         1 941       0.046200
     55 H141         5.4000    -1.7930    -0.6590 h1         1 941       0.039200
     56 H142         5.6580    -1.8060     1.1080 h1         1 941       0.039200
     57 H151         5.3670     0.6810     1.1570 hc         1 941       0.059700
     58 H152         5.1080     0.6920    -0.5890 hc         1 941       0.059700
     59 H8          -8.1030    -0.2310    -0.6670 h1         1 941       0.016700
     60 H71         -1.3410     0.3850    -0.7810 hc         1 941       0.038700
     61 H72         -0.9520    -0.7110     0.5240 hc         1 941       0.038700
     62 H33          6.8720    -3.5510    -0.0100 ha         1 941       0.129000
     63 H34          8.7100    -5.1670    -0.3040 ha         1 941       0.113000
     64 H35         11.0380    -4.3680    -0.6140 ha         1 941       0.115000
     65 H391        10.7510     2.4000     0.7930 h1         1 941       0.045367
     66 H392         9.0730     2.6890     0.2660 h1         1 941       0.045367
     67 H393         9.4430     2.4930     1.9920 h1         1 941       0.045367
     68 H13         12.3640    -2.6480    -0.7510 ho         1 941       0.466000
     69 H421        -5.5830     2.9080    -1.1270 hc         1 941       0.047144
     70 H422        -5.8030     4.2310    -2.2880 hc         1 941       0.047144
     71 H423        -4.3500     3.2340    -2.3640 hc         1 941       0.047144
     72 H431        -4.9540     6.1170     0.8500 hc         1 941       0.047144
     73 H432        -6.0640     6.0580    -0.5330 hc         1 941       0.047144
     74 H433        -6.0770     4.7520     0.6690 hc         1 941       0.047144
     75 H441        -2.7510     5.1920    -2.1150 hc         1 941       0.047144
     76 H442        -4.0100     6.4190    -1.9840 hc         1 941       0.047144
     77 H443        -2.8210     6.2410    -0.6810 hc         1 941       0.047144
@<TRIPOS>BOND
     1     1     2 ar  
     2     1     6 ar  
     3     1    44 1   
     4     2     3 ar  
     5     2    39 1   
     6     3     4 ar  
     7     3    45 1   
     8     4     5 ar  
     9     4    46 1   
    10     5     6 ar  
    11     5    21 1   
    12     6    47 1   
    13     7     8 1   
    14     7    10 1   
    15     7    21 1   
    16     7    48 1   
    17     8     9 1   
    18     8    49 1   
    19     9    17 2   
    20     9    18 1   
    21    10    11 1   
    22    10    20 2   
    23    11    12 1   
    24    11    50 1   
    25    12    13 1   
    26    12    51 1   
    27    12    52 1   
    28    13    15 1   
    29    13    53 1   
    30    13    54 1   
    31    14    15 1   
    32    14    16 1   
    33    14    55 1   
    34    14    56 1   
    35    15    57 1   
    36    15    58 1   
    37    16    26 1   
    38    18    40 1   
    39    19    22 1   
    40    19    23 1   
    41    19    39 1   
    42    19    59 1   
    43    21    60 1   
    44    21    61 1   
    45    22    37 1   
    46    22    38 1   
    47    23    24 1   
    48    23    25 1   
    49    26    27 ar  
    50    26    31 ar  
    51    27    28 ar  
    52    27    62 1   
    53    28    29 ar  
    54    28    63 1   
    55    29    30 ar  
    56    29    64 1   
    57    30    31 ar  
    58    30    36 1   
    59    31    32 1   
    60    32    33 2   
    61    32    34 1   
    62    34    35 1   
    63    35    65 1   
    64    35    66 1   
    65    35    67 1   
    66    36    68 1   
    67    40    41 1   
    68    40    42 1   
    69    40    43 1   
    70    41    69 1   
    71    41    70 1   
    72    41    71 1   
    73    42    72 1   
    74    42    73 1   
    75    42    74 1   
    76    43    75 1   
    77    43    76 1   
    78    43    77 1   
@<TRIPOS>SUBSTRUCTURE
     1 941         1 TEMP              0 ****  ****    0 ROOT
