@<TRIPOS>MOLECULE
942
   43    44     1     0     0
SMALL
No Charge or Current Charge


@<TRIPOS>ATOM
      1 CAW          5.8210     1.3090     1.9710 c3         1 942      -0.090100
      2 CAX          4.7320     1.5960     0.9190 c3         1 942      -0.073400
      3 CAV          3.6910     0.4620     0.8020 c3         1 942      -0.102400
      4 CAU          2.6040     0.7510    -0.2590 c3         1 942       0.090000
      5 NAQ          1.5770    -0.3290    -0.3570 n          1 942      -0.332000
      6 CAR          0.4260    -0.3470     0.4300 cc         1 942       0.379600
      7 NAS          0.3680     0.5630     1.4390 nv         1 942      -0.972000
      8 CAP          1.7840    -1.3230    -1.3280 c          1 942       0.626000
      9 OAO          2.7710    -1.3770    -2.0430 o          1 942      -0.555000
     10 NAG          0.8180    -2.2580    -1.4410 ns         1 942      -0.465500
     11 CAH         -0.3460    -2.3510    -0.7650 c          1 942       0.607200
     12 OAA         -1.1380    -3.2470    -1.0080 o          1 942      -0.540000
     13 CAI         -0.5760    -1.2860     0.2430 cd         1 942      -0.289600
     14 NAJ         -1.7600    -1.2260     1.0150 n          1 942      -0.300000
     15 CAB         -2.1300    -2.3960     1.8450 c3         1 942       0.096300
     16 OAT         -3.4830     0.0040     1.9390 o          1 942      -0.587100
     17 CAE         -1.9960     1.8520    -2.2030 ca         1 942      -0.119000
     18 CAD         -2.2170     3.1740    -1.7870 ca         1 942      -0.098000
     19 CAL         -2.5750     3.4340    -0.4550 ca         1 942      -0.119000
     20 CAM         -2.6990     2.3760     0.4620 ca         1 942      -0.075500
     21 CAK         -2.6060    -0.0740     1.0840 c          1 942       0.612700
     22 CAN         -2.4510     1.0430     0.0650 ca         1 942      -0.132600
     23 CAF         -2.1200     0.7920    -1.2880 ca         1 942      -0.075500
     24 HAW1         6.5360     2.1380     2.0180 hc         1 942       0.036367
     25 HAW2         5.3760     1.1830     2.9660 hc         1 942       0.036367
     26 HAW3         6.3720     0.3940     1.7190 hc         1 942       0.036367
     27 HAX1         4.2240     2.5330     1.1790 hc         1 942       0.041200
     28 HAX2         5.2110     1.7530    -0.0560 hc         1 942       0.041200
     29 HAV1         4.2030    -0.4710     0.5390 hc         1 942       0.051700
     30 HAV2         3.2220     0.3000     1.7800 hc         1 942       0.051700
     31 HAU1         2.1140     1.7080    -0.0370 h1         1 942       0.071700
     32 HAU2         3.0910     0.8920    -1.2330 h1         1 942       0.071700
     33 HAS1         1.2180     1.0440     1.7060 hn         1 942       0.504500
     34 HAS2        -0.2840     0.3820     2.1940 hn         1 942       0.504500
     35 HAG          0.9800    -2.9700    -2.1350 hn         1 942       0.347500
     36 HAB1        -2.2150    -2.0970     2.8980 h1         1 942       0.043033
     37 HAB2        -3.0910    -2.8010     1.5050 h1         1 942       0.043033
     38 HAB3        -1.3650    -3.1780     1.7660 h1         1 942       0.043033
     39 HAL         -2.7570     4.4570    -0.1310 ha         1 942       0.115000
     40 HAM         -2.9760     2.5950     1.4920 ha         1 942       0.124500
     41 HAD         -2.1220     3.9930    -2.4960 ha         1 942       0.112000
     42 HAF         -1.9830    -0.2240    -1.6460 ha         1 942       0.124500
     43 HAE         -1.7380     1.6460    -3.2400 ha         1 942       0.115000
@<TRIPOS>BOND
     1     1     2 1   
     2     1    24 1   
     3     1    25 1   
     4     1    26 1   
     5     2     3 1   
     6     2    27 1   
     7     2    28 1   
     8     3     4 1   
     9     3    29 1   
    10     3    30 1   
    11     4     5 1   
    12     4    31 1   
    13     4    32 1   
    14     5     6 1   
    15     5     8 1   
    16     6     7 1   
    17     6    13 2   
    18     7    33 1   
    19     7    34 1   
    20     8     9 2   
    21     8    10 1   
    22    10    11 1   
    23    10    35 1   
    24    11    12 2   
    25    11    13 1   
    26    13    14 1   
    27    14    15 1   
    28    14    21 1   
    29    15    36 1   
    30    15    37 1   
    31    15    38 1   
    32    16    21 2   
    33    17    18 ar  
    34    17    23 ar  
    35    17    43 1   
    36    18    19 ar  
    37    18    41 1   
    38    19    20 ar  
    39    19    39 1   
    40    20    22 ar  
    41    20    40 1   
    42    21    22 1   
    43    22    23 ar  
    44    23    42 1   
@<TRIPOS>SUBSTRUCTURE
     1 942         1 TEMP              0 ****  ****    0 ROOT
