@<TRIPOS>MOLECULE
942
   43    44     1     0     0
SMALL
bcc


@<TRIPOS>ATOM
      1 CAW          5.9300     0.8420     2.1110 c3         1 942      -0.090100
      2 CAX          4.8760     1.3760     1.1530 c3         1 942      -0.073400
      3 CAV          3.7430     0.3830     0.9280 c3         1 942      -0.102400
      4 CAU          2.7000     0.9340    -0.0330 c3         1 942       0.090000
      5 NAQ          1.6170    -0.0130    -0.3100 n          1 942      -0.399000
      6 CAR          0.5150    -0.1010     0.5050 cc         1 942       0.379600
      7 NAS          0.4410     0.7180     1.5580 nv         1 942      -0.861600
      8 CAP          1.7920    -0.8660    -1.3880 c          1 942       0.835500
      9 OAO          2.7860    -0.8300    -2.0840 o          1 942      -0.630500
     10 NAG          0.7780    -1.7440    -1.6170 ns         1 942      -0.599500
     11 CAH         -0.3980    -1.8760    -0.8910 c          1 942       0.749700
     12 OAA         -1.2270    -2.7150    -1.2170 o          1 942      -0.615500
     13 CAI         -0.5080    -0.9820     0.2060 cd         1 942      -0.289600
     14 NAJ         -1.6390    -1.0670     1.0420 n          1 942      -0.367000
     15 CAB         -1.7130    -2.1300     2.0360 c3         1 942       0.096300
     16 OAT         -3.6060    -0.2180     1.7390 o          1 942      -0.587100
     17 CAE         -2.6640     1.4920    -2.4380 ca         1 942      -0.137000
     18 CAD         -2.6230     2.8310    -2.0700 ca         1 942      -0.116000
     19 CAL         -2.5820     3.1780    -0.7260 ca         1 942      -0.137000
     20 CAM         -2.5860     2.1880     0.2480 ca         1 942      -0.093500
     21 CAK         -2.6700    -0.1900     0.9560 c          1 942       0.679700
     22 CAN         -2.6020     0.8470    -0.1200 ca         1 942      -0.132600
     23 CAF         -2.6470     0.5010    -1.4670 ca         1 942      -0.093500
     24 HAW1         6.7400     1.5590     2.2510 hc         1 942       0.036367
     25 HAW2         5.5000     0.6330     3.0920 hc         1 942       0.036367
     26 HAW3         6.3690    -0.0850     1.7400 hc         1 942       0.036367
     27 HAX1         4.4700     2.3150     1.5420 hc         1 942       0.041200
     28 HAX2         5.3400     1.6200     0.1920 hc         1 942       0.041200
     29 HAV1         4.1460    -0.5490     0.5210 hc         1 942       0.051700
     30 HAV2         3.2860     0.1270     1.8890 hc         1 942       0.051700
     31 HAU1         2.2640     1.8660     0.3320 h1         1 942       0.071700
     32 HAU2         3.1630     1.1850    -0.9840 h1         1 942       0.071700
     33 HAS1         1.2280     1.2410     1.8990 hn         1 942       0.449300
     34 HAS2        -0.3070     0.5920     2.2170 hn         1 942       0.449300
     35 HAG          0.9050    -2.3660    -2.4040 hn         1 942       0.347500
     36 HAB1        -1.7180    -1.7300     3.0510 h1         1 942       0.043033
     37 HAB2        -2.6090    -2.7360     1.9020 h1         1 942       0.043033
     38 HAB3        -0.8430    -2.7690     1.9220 h1         1 942       0.043033
     39 HAL         -2.5540     4.2190    -0.4350 ha         1 942       0.133000
     40 HAM         -2.5650     2.4650     1.2950 ha         1 942       0.142500
     41 HAD         -2.6270     3.6020    -2.8290 ha         1 942       0.130000
     42 HAF         -2.6840    -0.5390    -1.7630 ha         1 942       0.142500
     43 HAE         -2.7080     1.2170    -3.4840 ha         1 942       0.133000
@<TRIPOS>BOND
     1     1     2 1   
     2     1    24 1   
     3     1    25 1   
     4     1    26 1   
     5     2     3 1   
     6     2    27 1   
     7     2    28 1   
     8     3     4 1   
     9     3    29 1   
    10     3    30 1   
    11     4     5 1   
    12     4    31 1   
    13     4    32 1   
    14     5     6 1   
    15     5     8 1   
    16     6     7 1   
    17     6    13 2   
    18     7    33 1   
    19     7    34 1   
    20     8     9 2   
    21     8    10 1   
    22    10    11 1   
    23    10    35 1   
    24    11    12 2   
    25    11    13 1   
    26    13    14 1   
    27    14    15 1   
    28    14    21 1   
    29    15    36 1   
    30    15    37 1   
    31    15    38 1   
    32    16    21 2   
    33    17    18 ar  
    34    17    23 ar  
    35    17    43 1   
    36    18    19 ar  
    37    18    41 1   
    38    19    20 ar  
    39    19    39 1   
    40    20    22 ar  
    41    20    40 1   
    42    21    22 1   
    43    22    23 ar  
    44    23    42 1   
@<TRIPOS>SUBSTRUCTURE
     1 942         1 TEMP              0 ****  ****    0 ROOT
