@<TRIPOS>MOLECULE
943
   35    37     1     0     0
SMALL
No Charge or Current Charge


@<TRIPOS>ATOM
      1 C10         -8.0960   -26.0320    -0.9110 ca         1 943      -0.161500
      2 C12         -8.8960   -30.9250    -0.8180 ca         1 943       0.068500
      3 Cl1        -10.9290   -29.4430     2.4090 cl         1 943      -0.180500
      4 C02         -9.9430   -29.6130     0.9470 ca         1 943       0.068500
      5 C03         -9.5560   -28.4340     0.2850 ca         1 943      -0.072000
      6 C04         -8.8300   -28.4700    -0.9290 cp         1 943      -0.094000
      7 C05         -8.4230   -27.2080    -1.6260 cp         1 943       0.034000
      8 C06         -8.3430   -27.1220    -3.0360 ca         1 943      -0.161500
      9 C07         -7.9580   -25.9190    -3.6480 ca         1 943       0.328400
     10 N08         -7.6480   -24.8030    -2.9500 nb         1 943      -0.681000
     11 C09         -7.7190   -24.8690    -1.6020 ca         1 943       0.328400
     12 C11         -8.5150   -29.7400    -1.4690 ca         1 943      -0.072000
     13 C14         -9.5970   -30.8830     0.4120 ca         1 943       0.380000
     14 N15         -9.9620   -32.0910     1.0410 nu         1 943      -1.017000
     15 C16         -9.7680   -32.6170     2.3130 ca         1 943       0.350000
     16 C17         -8.9620   -31.9290     3.2400 ca         1 943      -0.208000
     17 C18         -8.7460   -32.4470     4.5260 ca         1 943      -0.091000
     18 C19         -9.3300   -33.6670     4.8880 ca         1 943      -0.189000
     19 C20        -10.1170   -34.3730     3.9640 ca         1 943      -0.052000
     20 C21        -10.3370   -33.8620     2.6630 ca         1 943      -0.199600
     21 C22        -11.1730   -34.6570     1.6880 c          1 943       0.723600
     22 O23        -10.9300   -34.5690     0.4910 o          1 943      -0.708500
     23 O24        -12.0420   -35.3890     2.1390 o          1 943      -0.708500
     24 H1          -8.1180   -26.0150     0.1740 ha         1 943       0.126000
     25 H2          -9.8490   -27.4780     0.7120 ha         1 943       0.120500
     26 H3          -8.5910   -27.9740    -3.6610 ha         1 943       0.126000
     27 H4          -7.8990   -25.8430    -4.7330 h4         1 943       0.010600
     28 H5          -7.4610   -23.9600    -1.0580 h4         1 943       0.010600
     29 H6          -7.9570   -29.8130    -2.3990 ha         1 943       0.120500
     30 H7         -10.2300   -32.8440     0.3870 hn         1 943       0.587000
     31 H8          -8.4920   -30.9900     2.9670 ha         1 943       0.095000
     32 H9          -8.1270   -31.9040     5.2360 ha         1 943       0.083000
     33 H10         -9.1660   -34.0730     5.8830 ha         1 943       0.090000
     34 H11        -10.5500   -35.3280     4.2580 ha         1 943       0.126000
     35 Cl2         -8.4620   -32.4700    -1.5640 cl         1 943      -0.180500
@<TRIPOS>BOND
     1     1     7 ar  
     2     1    11 ar  
     3     1    24 1   
     4     2    12 ar  
     5     2    13 ar  
     6     2    35 1   
     7     3     4 1   
     8     4     5 ar  
     9     4    13 ar  
    10     5     6 ar  
    11     5    25 1   
    12     6     7 1   
    13     6    12 ar  
    14     7     8 ar  
    15     8     9 ar  
    16     8    26 1   
    17     9    10 ar  
    18     9    27 1   
    19    10    11 ar  
    20    11    28 1   
    21    12    29 1   
    22    13    14 1   
    23    14    15 1   
    24    14    30 1   
    25    15    16 ar  
    26    15    20 ar  
    27    16    17 ar  
    28    16    31 1   
    29    17    18 ar  
    30    17    32 1   
    31    18    19 ar  
    32    18    33 1   
    33    19    20 ar  
    34    19    34 1   
    35    20    21 1   
    36    21    22 1   
    37    21    23 1   
@<TRIPOS>SUBSTRUCTURE
     1 943         1 TEMP              0 ****  ****    0 ROOT
