@<TRIPOS>MOLECULE
943
   35    37     1     0     0
SMALL
bcc


@<TRIPOS>ATOM
      1 C10         -8.1030   -26.1380    -0.8080 ca         1 943      -0.244800
      2 C12         -8.8770   -30.9280    -0.7980 ca         1 943      -0.023100
      3 CL1        -11.1120   -29.5780     2.1960 cl         1 943      -0.088900
      4 C02        -10.0380   -29.6730     0.8490 ca         1 943      -0.023100
      5 C03         -9.6260   -28.4950     0.2530 ca         1 943      -0.090000
      6 C04         -8.8420   -28.5270    -0.8970 cp         1 943      -0.094000
      7 C05         -8.4150   -27.2760    -1.5500 cp         1 943       0.034000
      8 C06         -8.3070   -27.1780    -2.9360 ca         1 943      -0.244800
      9 C07         -7.9060   -25.9770    -3.4990 ca         1 943       0.393700
     10 N08         -7.6120   -24.8920    -2.7910 nb         1 943      -0.681000
     11 C09         -7.7130   -24.9860    -1.4700 ca         1 943       0.393700
     12 C11         -8.4820   -29.7630    -1.4270 ca         1 943      -0.090000
     13 C14         -9.6600   -30.9330     0.3630 ca         1 943       0.241600
     14 N15        -10.0730   -32.1140     0.9370 nu         1 943      -0.685000
     15 C16         -9.7830   -32.5540     2.2070 ca         1 943       0.211600
     16 C17         -8.9330   -31.8440     3.0650 ca         1 943      -0.226000
     17 C18         -8.6620   -32.3120     4.3370 ca         1 943      -0.109000
     18 C19         -9.2230   -33.5010     4.7880 ca         1 943      -0.207000
     19 C20        -10.0480   -34.2140     3.9340 ca         1 943      -0.070000
     20 C21        -10.3420   -33.7770     2.6450 ca         1 943      -0.199600
     21 C22        -11.2210   -34.6450     1.7570 c          1 943       0.934200
     22 O23        -11.3020   -34.3270     0.5380 o          1 943      -0.813800
     23 O24        -11.7870   -35.6130     2.2840 o          1 943      -0.813800
     24 H1          -8.1410   -26.1430     0.2730 ha         1 943       0.144000
     25 H2          -9.9600   -27.5520     0.6630 ha         1 943       0.138500
     26 H3          -8.5520   -28.0110    -3.5810 ha         1 943       0.144000
     27 H4          -7.8250   -25.8900    -4.5770 h4         1 943       0.010600
     28 H5          -7.4650   -24.0970    -0.9000 h4         1 943       0.010600
     29 H6          -7.8610   -29.8230    -2.3110 ha         1 943       0.138500
     30 H7         -10.5160   -32.8640     0.3780 hn         1 943       0.531800
     31 H8          -8.4650   -30.9270     2.7290 ha         1 943       0.113000
     32 H9          -7.9990   -31.7440     4.9780 ha         1 943       0.101000
     33 H10         -9.0140   -33.8680     5.7840 ha         1 943       0.108000
     34 H11        -10.4840   -35.1460     4.2670 ha         1 943       0.144000
     35 CL2         -8.3720   -32.4430    -1.4590 cl         1 943      -0.088900
@<TRIPOS>BOND
     1     1     7 ar  
     2     1    11 ar  
     3     1    24 1   
     4     2    12 ar  
     5     2    13 ar  
     6     2    35 1   
     7     3     4 1   
     8     4     5 ar  
     9     4    13 ar  
    10     5     6 ar  
    11     5    25 1   
    12     6     7 1   
    13     6    12 ar  
    14     7     8 ar  
    15     8     9 ar  
    16     8    26 1   
    17     9    10 ar  
    18     9    27 1   
    19    10    11 ar  
    20    11    28 1   
    21    12    29 1   
    22    13    14 1   
    23    14    15 1   
    24    14    30 1   
    25    15    16 ar  
    26    15    20 ar  
    27    16    17 ar  
    28    16    31 1   
    29    17    18 ar  
    30    17    32 1   
    31    18    19 ar  
    32    18    33 1   
    33    19    20 ar  
    34    19    34 1   
    35    20    21 1   
    36    21    22 1   
    37    21    23 1   
@<TRIPOS>SUBSTRUCTURE
     1 943         1 TEMP              0 ****  ****    0 ROOT
