@<TRIPOS>MOLECULE
945
   30    30     1     0     0
SMALL
No Charge or Current Charge


@<TRIPOS>ATOM
      1 C5          -0.7790    -1.1860     0.5690 c6         1 945      -0.057700
      2 C4          -1.7650    -0.8560    -0.6020 c6         1 945       0.173300
      3 C2          -1.4040     1.6570    -0.2380 c6         1 945       0.122300
      4 C6           0.2900    -0.0500     0.7050 c6         1 945       0.229300
      5 C1          -0.4020     1.3430     0.9160 c6         1 945       0.153300
      6 C3          -2.4560     0.5180    -0.3690 c6         1 945       0.095300
      7 C7          -0.0670    -2.5680     0.4160 c3         1 945       0.165600
      8 O7          -0.8800    -3.6740     0.8420 oh         1 945      -0.666000
      9 O6           1.0920    -0.0190    -0.4960 os         1 945      -0.606700
     10 O2          -2.0800     2.9130     0.0110 oh         1 945      -0.739000
     11 O3          -3.3810     0.8130    -1.4340 oh         1 945      -0.742000
     12 O4          -2.8050    -1.8310    -0.7520 oh         1 945      -0.709000
     13 S13          2.7180     0.1470    -0.3410 s6         1 945       1.494300
     14 O14          3.1290    -1.0710     0.3690 o          1 945      -0.705867
     15 O15          3.1940     0.2350    -1.7270 o          1 945      -0.705867
     16 O16          2.8760     1.3810     0.4390 o          1 945      -0.705867
     17 H1          -1.3430    -1.2330     1.5110 hc         1 945       0.069700
     18 H2          -1.1840    -0.7930    -1.5360 h1         1 945       0.065700
     19 H3          -0.8350     1.7070    -1.1810 h1         1 945       0.082700
     20 H4           0.9240    -0.2680     1.5790 h1         1 945       0.070700
     21 H5           0.3870     2.1100     0.8880 h1         1 945       0.090700
     22 H7          -3.0090     0.4590     0.5810 h1         1 945       0.049700
     23 H8           0.2430    -2.6930    -0.6310 h1         1 945       0.042200
     24 H9           0.8490    -2.5520     1.0220 h1         1 945       0.042200
     25 H10         -0.3790    -4.4940     0.6350 ho         1 945       0.428000
     26 H11         -1.4810     3.6370    -0.2930 ho         1 945       0.503000
     27 H12         -3.5450     1.7850    -1.3550 ho         1 945       0.495000
     28 H13         -3.5260    -1.3170    -1.1890 ho         1 945       0.491000
     29 O1          -1.0970     1.4230     2.1790 oh         1 945      -0.733000
     30 H14         -1.7790     2.1230     2.0320 ho         1 945       0.508000
@<TRIPOS>BOND
     1     1     2 1   
     2     1     4 1   
     3     1     7 1   
     4     1    17 1   
     5     2     6 1   
     6     2    12 1   
     7     2    18 1   
     8     3     5 1   
     9     3     6 1   
    10     3    10 1   
    11     3    19 1   
    12     4     5 1   
    13     4     9 1   
    14     4    20 1   
    15     5    21 1   
    16     5    29 1   
    17     6    11 1   
    18     6    22 1   
    19     7     8 1   
    20     7    23 1   
    21     7    24 1   
    22     8    25 1   
    23     9    13 1   
    24    10    26 1   
    25    11    27 1   
    26    12    28 1   
    27    13    14 1   
    28    13    15 1   
    29    13    16 1   
    30    29    30 1   
@<TRIPOS>SUBSTRUCTURE
     1 945         1 TEMP              0 ****  ****    0 ROOT
