@<TRIPOS>MOLECULE
945
   30    30     1     0     0
SMALL
abcg2


@<TRIPOS>ATOM
      1 C5          -0.7950    -1.1160     0.5190 c6         1 945      -0.057700
      2 C4          -1.7410    -0.7270    -0.6160 c6         1 945       0.173300
      3 C2          -1.2530     1.7050    -0.2290 c6         1 945       0.122300
      4 C6           0.2820    -0.0440     0.7110 c6         1 945       0.229300
      5 C1          -0.3010     1.3550     0.9080 c6         1 945       0.153300
      6 C3          -2.3470     0.6530    -0.3610 c6         1 945       0.095300
      7 C7          -0.1360    -2.4820     0.3390 c3         1 945       0.165600
      8 O7          -1.0370    -3.5050     0.7030 oh         1 945      -0.666000
      9 O6           1.1220    -0.0340    -0.4430 os         1 945      -0.606700
     10 O2          -1.7810     2.9840     0.0440 oh         1 945      -0.739000
     11 O3          -3.1950     0.9920    -1.4490 oh         1 945      -0.742000
     12 O4          -2.7560    -1.6960    -0.7330 oh         1 945      -0.709000
     13 S13          2.7510     0.0510    -0.2260 s6         1 945       1.494300
     14 O14          3.1160    -1.1580     0.5160 o          1 945      -0.705867
     15 O15          3.2030     0.0750    -1.6150 o          1 945      -0.705867
     16 O16          2.9950     1.2880     0.5200 o          1 945      -0.705867
     17 H1          -1.3640    -1.1420     1.4560 hc         1 945       0.069700
     18 H2          -1.1600    -0.6790    -1.5510 h1         1 945       0.065700
     19 H3          -0.6720     1.7190    -1.1620 h1         1 945       0.082700
     20 H4           0.8580    -0.3060     1.6060 h1         1 945       0.070700
     21 H5           0.5280     2.0750     0.9060 h1         1 945       0.090700
     22 H7          -2.9260     0.6130     0.5700 h1         1 945       0.049700
     23 H8           0.2060    -2.5960    -0.6980 h1         1 945       0.042200
     24 H9           0.7610    -2.5190     0.9690 h1         1 945       0.042200
     25 H10         -0.5660    -4.3400     0.6380 ho         1 945       0.428000
     26 H11         -2.4540     3.1760    -0.6180 ho         1 945       0.503000
     27 H12         -4.0780     1.1710    -1.1170 ho         1 945       0.495000
     28 H13         -3.3510    -1.3930    -1.4270 ho         1 945       0.491000
     29 O1          -0.9530     1.3540     2.1580 oh         1 945      -0.733000
     30 H14         -1.4530     2.1740     2.2330 ho         1 945       0.508000
@<TRIPOS>BOND
     1     1     2 1   
     2     1     4 1   
     3     1     7 1   
     4     1    17 1   
     5     2     6 1   
     6     2    12 1   
     7     2    18 1   
     8     3     5 1   
     9     3     6 1   
    10     3    10 1   
    11     3    19 1   
    12     4     5 1   
    13     4     9 1   
    14     4    20 1   
    15     5    21 1   
    16     5    29 1   
    17     6    11 1   
    18     6    22 1   
    19     7     8 1   
    20     7    23 1   
    21     7    24 1   
    22     8    25 1   
    23     9    13 1   
    24    10    26 1   
    25    11    27 1   
    26    12    28 1   
    27    13    14 1   
    28    13    15 1   
    29    13    16 1   
    30    29    30 1   
@<TRIPOS>SUBSTRUCTURE
     1 945         1 TEMP              0 ****  ****    0 ROOT
