@<TRIPOS>MOLECULE
946
   42    44     1     0     0
SMALL
abcg2


@<TRIPOS>ATOM
      1 C1           5.2630    -1.4340    -0.2670 ca         1 946       0.123100
      2 O1           5.7720    -2.6470    -0.5730 oh         1 946      -0.533100
      3 C2           6.0380    -0.2710    -0.3420 ca         1 946       0.048100
      4 O2           7.3220    -0.4320    -0.7400 oh         1 946      -0.557100
      5 C3           5.4720     0.9490    -0.0110 ca         1 946      -0.158000
      6 O3           1.6940     0.6050     2.0900 oh         1 946      -0.647000
      7 C4           4.1440     1.0270     0.3900 ca         1 946      -0.105000
      8 C5           3.3640    -0.1200     0.4650 ca         1 946      -0.108300
      9 C6           1.9060    -0.0610     0.8600 c3         1 946       0.213600
     10 C7           1.0680     0.5480    -0.2600 c3         1 946       0.130800
     11 C8          -1.1730     1.0430    -0.9900 c3         1 946       0.209100
     12 C9          -2.6430     0.7990    -0.7700 ca         1 946      -0.089300
     13 C10         -4.4930    -0.4670     0.1650 ca         1 946      -0.038000
     14 C11         -4.9830    -1.5360     0.9530 ca         1 946      -0.094000
     15 C12         -6.3290    -1.7360     1.1010 ca         1 946      -0.111000
     16 C13         -7.2520    -0.8740     0.4710 ca         1 946      -0.107000
     17 C14         -6.8080     0.1690    -0.2960 ca         1 946      -0.100000
     18 C15         -5.4230     0.3970    -0.4690 ca         1 946      -0.037000
     19 C16         -4.9250     1.4630    -1.2550 ca         1 946      -0.100000
     20 C17         -3.5800     1.6570    -1.3960 ca         1 946      -0.107000
     21 C18          3.9390    -1.3440     0.1360 ca         1 946      -0.105000
     22 C19         -3.1070    -0.2400    -0.0060 ca         1 946      -0.077000
     23 N1          -0.3460     0.4270     0.0210 n7         1 946      -0.863400
     24 H1           6.6910    -2.5650    -0.8540 ho         1 946       0.482000
     25 H2           7.7650     0.4190    -0.8260 ho         1 946       0.475000
     26 H3           6.0720     1.8500    -0.0680 ha         1 946       0.114000
     27 H4           1.9010     1.5390     1.9800 ho         1 946       0.435000
     28 H5           3.7360     2.0010     0.6330 ha         1 946       0.109000
     29 H6           1.5500    -1.0830     1.0230 h1         1 946       0.094700
     30 H7           1.3900     1.5920    -0.4260 h1         1 946       0.035700
     31 H8           1.2890     0.0110    -1.1870 h1         1 946       0.035700
     32 H9          -0.8930     0.6220    -1.9620 h1         1 946       0.036200
     33 H10         -1.0030     2.1280    -1.0830 h1         1 946       0.036200
     34 H11         -4.2760    -2.1970     1.4390 ha         1 946       0.115000
     35 H12         -6.6920    -2.5580     1.7040 ha         1 946       0.112000
     36 H13         -8.3130    -1.0430     0.5980 ha         1 946       0.112000
     37 H14         -7.5140     0.8330    -0.7810 ha         1 946       0.112000
     38 H15         -5.6250     2.1320    -1.7410 ha         1 946       0.112000
     39 H16         -3.2190     2.4870    -1.9920 ha         1 946       0.108000
     40 H17          3.3500    -2.2520     0.1930 ha         1 946       0.134000
     41 H18         -2.4040    -0.9040     0.4830 ha         1 946       0.132000
     42 H19         -0.5460     0.8540     0.9170 hn         1 946       0.422000
@<TRIPOS>BOND
     1     1     2 1   
     2     1     3 ar  
     3     1    21 ar  
     4     2    24 1   
     5     3     4 1   
     6     3     5 ar  
     7     4    25 1   
     8     5     7 ar  
     9     5    26 1   
    10     6     9 1   
    11     6    27 1   
    12     7     8 ar  
    13     7    28 1   
    14     8     9 1   
    15     8    21 ar  
    16     9    10 1   
    17     9    29 1   
    18    10    23 1   
    19    10    30 1   
    20    10    31 1   
    21    11    12 1   
    22    11    23 1   
    23    11    32 1   
    24    11    33 1   
    25    12    20 ar  
    26    12    22 ar  
    27    13    14 ar  
    28    13    18 ar  
    29    13    22 ar  
    30    14    15 ar  
    31    14    34 1   
    32    15    16 ar  
    33    15    35 1   
    34    16    17 ar  
    35    16    36 1   
    36    17    18 ar  
    37    17    37 1   
    38    18    19 ar  
    39    19    20 ar  
    40    19    38 1   
    41    20    39 1   
    42    21    40 1   
    43    22    41 1   
    44    23    42 1   
@<TRIPOS>SUBSTRUCTURE
     1 946         1 TEMP              0 ****  ****    0 ROOT
