@<TRIPOS>MOLECULE
946
   42    44     1     0     0
SMALL
No Charge or Current Charge


@<TRIPOS>ATOM
      1 C1           5.6050    -1.1690     0.5720 ca         1 946       0.123100
      2 O1           6.3530    -2.2090     1.0420 oh         1 946      -0.533100
      3 C2           6.2200    -0.1720    -0.2120 ca         1 946       0.048100
      4 O2           7.5570    -0.2520    -0.4990 oh         1 946      -0.557100
      5 C3           5.4570     0.9020    -0.6960 ca         1 946      -0.158000
      6 O3           1.7460     1.0960     1.6810 oh         1 946      -0.647000
      7 C4           4.0840     0.9800    -0.3990 ca         1 946      -0.105000
      8 C5           3.4590    -0.0180     0.3820 ca         1 946      -0.108300
      9 C6           1.9670     0.0520     0.7170 c3         1 946       0.213600
     10 C7           1.0660     0.2730    -0.5370 c3         1 946       0.130800
     11 C8          -1.2940     0.5870    -1.2880 c3         1 946       0.209100
     12 C9          -2.7360     0.5740    -0.7980 ca         1 946      -0.089300
     13 C10         -4.7740    -0.6610    -0.2520 ca         1 946      -0.038000
     14 C11         -5.4750    -1.8780    -0.1540 ca         1 946      -0.094000
     15 C12         -6.8070    -1.8900     0.2940 ca         1 946      -0.111000
     16 C13         -7.4430    -0.6870     0.6460 ca         1 946      -0.107000
     17 C14         -6.7480     0.5310     0.5500 ca         1 946      -0.100000
     18 C15         -5.4130     0.5480     0.1020 ca         1 946      -0.037000
     19 C16         -4.7110     1.7640     0.0050 ca         1 946      -0.100000
     20 C17         -3.3790     1.7760    -0.4430 ca         1 946      -0.107000
     21 C18          4.2350    -1.0920     0.8690 ca         1 946      -0.105000
     22 C19         -3.4390    -0.6430    -0.7000 ca         1 946      -0.077000
     23 N1          -0.3750     0.2440    -0.1910 n7         1 946      -0.863400
     24 H1           7.2670    -2.0510     0.7130 ho         1 946       0.482000
     25 H2           7.8100     0.5220    -1.0500 ho         1 946       0.475000
     26 H3           5.9180     1.6800    -1.3000 ha         1 946       0.114000
     27 H4           2.2670     1.8690     1.3760 ho         1 946       0.435000
     28 H5           3.5100     1.8230    -0.7790 ha         1 946       0.109000
     29 H6           1.6690    -0.9140     1.1500 h1         1 946       0.094700
     30 H7           1.3220     1.2390    -0.9940 h1         1 946       0.035700
     31 H8           1.2930    -0.5080    -1.2760 h1         1 946       0.035700
     32 H9          -1.1890    -0.1300    -2.1140 h1         1 946       0.036200
     33 H10         -1.0590     1.5830    -1.6890 h1         1 946       0.036200
     34 H11         -4.9900    -2.8140    -0.4240 ha         1 946       0.115000
     35 H12         -7.3470    -2.8320     0.3680 ha         1 946       0.112000
     36 H13         -8.4740    -0.6980     0.9920 ha         1 946       0.112000
     37 H14         -7.2460     1.4580     0.8240 ha         1 946       0.112000
     38 H15         -5.1960     2.6990     0.2760 ha         1 946       0.112000
     39 H16         -2.8460     2.7220    -0.5130 ha         1 946       0.108000
     40 H17          3.7780    -1.8680     1.4780 ha         1 946       0.134000
     41 H18         -2.9440    -1.5730    -0.9700 ha         1 946       0.132000
     42 H19         -0.5210     0.9240     0.5670 hn         1 946       0.422000
@<TRIPOS>BOND
     1     1     2 1   
     2     1     3 ar  
     3     1    21 ar  
     4     2    24 1   
     5     3     4 1   
     6     3     5 ar  
     7     4    25 1   
     8     5     7 ar  
     9     5    26 1   
    10     6     9 1   
    11     6    27 1   
    12     7     8 ar  
    13     7    28 1   
    14     8     9 1   
    15     8    21 ar  
    16     9    10 1   
    17     9    29 1   
    18    10    23 1   
    19    10    30 1   
    20    10    31 1   
    21    11    12 1   
    22    11    23 1   
    23    11    32 1   
    24    11    33 1   
    25    12    20 ar  
    26    12    22 ar  
    27    13    14 ar  
    28    13    18 ar  
    29    13    22 ar  
    30    14    15 ar  
    31    14    34 1   
    32    15    16 ar  
    33    15    35 1   
    34    16    17 ar  
    35    16    36 1   
    36    17    18 ar  
    37    17    37 1   
    38    18    19 ar  
    39    19    20 ar  
    40    19    38 1   
    41    20    39 1   
    42    21    40 1   
    43    22    41 1   
    44    23    42 1   
@<TRIPOS>SUBSTRUCTURE
     1 946         1 TEMP              0 ****  ****    0 ROOT
