@<TRIPOS>MOLECULE
947
   43    45     1     0     0
SMALL
No Charge or Current Charge


@<TRIPOS>ATOM
      1 C5          -0.8850     1.8240     0.3680 c          1 947       0.684100
      2 C8          -5.0550    -0.4540    -0.6570 cc         1 947      -0.210900
      3 C9           2.4490     1.7940     0.5420 ca         1 947      -0.297500
      4 C10          4.0860    -0.5200     0.3910 cp         1 947       0.029000
      5 C2          -3.0270     0.8170    -0.3580 cc         1 947       0.592300
      6 C11          3.9630     0.3460    -0.7340 ca         1 947      -0.083300
      7 C13          3.1460     1.4930    -0.6460 ca         1 947      -0.022000
      8 C12         -4.3210    -0.8010     0.4520 cd         1 947       0.355900
      9 C16          3.3670    -0.2080     1.5680 ca         1 947      -0.121000
     10 C18          2.5580     0.9350     1.6510 ca         1 947       0.012000
     11 C19          4.9260    -1.7530     0.3680 cp         1 947      -0.055000
     12 C21          4.6550     0.0570    -2.0670 c3         1 947      -0.033100
     13 C22          6.3350    -1.6800     0.2600 ca         1 947      -0.094500
     14 C23          4.3270    -3.0290     0.4890 ca         1 947      -0.094500
     15 C24          3.9250    -1.0280    -2.8830 c3         1 947      -0.087100
     16 C25          7.1190    -2.8470     0.2510 ca         1 947      -0.110500
     17 C26          5.1090    -4.1970     0.4790 ca         1 947      -0.110500
     18 C27          6.5060    -4.1060     0.3570 ca         1 947      -0.103000
     19 N3          -0.0470     2.7910    -0.0700 ns         1 947      -0.599300
     20 N6          -1.9660     1.6860    -0.4570 ns         1 947      -0.485400
     21 N7          -3.1540    -0.0670     0.6190 nd         1 947      -0.656000
     22 O14          1.1090     3.5550     2.0340 o          1 947      -0.523000
     23 O15          1.9380     4.2810    -0.2770 o          1 947      -0.523000
     24 O17         -0.6820     1.1680     1.3730 o          1 947      -0.531100
     25 S1           1.4000     3.2590     0.6260 sy         1 947       1.197300
     26 S4          -4.3040     0.8280    -1.5520 ss         1 947      -0.048400
     27 H1           3.0460     2.1460    -1.5110 ha         1 947       0.125000
     28 H2          -4.5810    -1.5720     1.1670 h4         1 947       0.058100
     29 H3           3.4450    -0.8650     2.4300 ha         1 947       0.127000
     30 H4           2.0170     1.1410     2.5740 ha         1 947       0.152000
     31 H5           4.7090     0.9690    -2.6750 hc         1 947       0.050700
     32 H6           5.6950    -0.2500    -1.9130 hc         1 947       0.050700
     33 H7           6.8210    -0.7100     0.1880 ha         1 947       0.118000
     34 H8           3.2460    -3.1090     0.5830 ha         1 947       0.118000
     35 H9           3.9050    -1.9790    -2.3390 hc         1 947       0.036700
     36 H10          2.8910    -0.7250    -3.0890 hc         1 947       0.036700
     37 H11          4.4330    -1.1920    -3.8410 hc         1 947       0.036700
     38 H12          8.2010    -2.7750     0.1640 ha         1 947       0.115500
     39 H13          4.6320    -5.1710     0.5670 ha         1 947       0.115500
     40 H14          7.1120    -5.0100     0.3510 ha         1 947       0.115000
     41 H15         -0.2290     3.2990    -0.9160 hn         1 947       0.341500
     42 H16         -1.9830     2.3110    -1.2460 hn         1 947       0.334500
     43 Br2         -6.6850    -1.2280    -1.2040 br         1 947      -0.011100
@<TRIPOS>BOND
     1     1    19 1   
     2     1    20 1   
     3     1    24 2   
     4     2     8 2   
     5     2    26 1   
     6     2    43 1   
     7     3     7 ar  
     8     3    10 ar  
     9     3    25 1   
    10     4     6 ar  
    11     4     9 ar  
    12     4    11 1   
    13     5    20 1   
    14     5    21 2   
    15     5    26 1   
    16     6     7 ar  
    17     6    12 1   
    18     7    27 1   
    19     8    21 1   
    20     8    28 1   
    21     9    10 ar  
    22     9    29 1   
    23    10    30 1   
    24    11    13 ar  
    25    11    14 ar  
    26    12    15 1   
    27    12    31 1   
    28    12    32 1   
    29    13    16 ar  
    30    13    33 1   
    31    14    17 ar  
    32    14    34 1   
    33    15    35 1   
    34    15    36 1   
    35    15    37 1   
    36    16    18 ar  
    37    16    38 1   
    38    17    18 ar  
    39    17    39 1   
    40    18    40 1   
    41    19    25 1   
    42    19    41 1   
    43    20    42 1   
    44    22    25 2   
    45    23    25 2   
@<TRIPOS>SUBSTRUCTURE
     1 947         1 TEMP              0 ****  ****    0 ROOT
