@<TRIPOS>MOLECULE
947
   43    45     1     0     0
SMALL
abcg2


@<TRIPOS>ATOM
      1 C5          -0.7810     1.8300     0.2980 c          1 947       0.684100
      2 C8          -4.8570    -0.5540    -0.7090 cc         1 947      -0.210900
      3 C9           2.4640     1.7700     0.6180 ca         1 947      -0.297500
      4 C10          4.0440    -0.4900     0.4100 cp         1 947       0.029000
      5 C2          -2.8490     0.7450    -0.4170 cc         1 947       0.592300
      6 C11          3.9020     0.3540    -0.7030 ca         1 947      -0.083300
      7 C13          3.1080     1.4870    -0.5790 ca         1 947      -0.022000
      8 C12         -4.0910    -0.8840     0.3560 cd         1 947       0.355900
      9 C16          3.3870    -0.1840     1.6010 ca         1 947      -0.121000
     10 C18          2.5910     0.9430     1.7210 ca         1 947       0.012000
     11 C19          4.8710    -1.7190     0.3630 cp         1 947      -0.055000
     12 C21          4.5050     0.0350    -2.0450 c3         1 947      -0.033100
     13 C22          6.2520    -1.6520     0.1880 ca         1 947      -0.094500
     14 C23          4.2720    -2.9660     0.5370 ca         1 947      -0.094500
     15 C24          3.6710    -0.9910    -2.8100 c3         1 947      -0.087100
     16 C25          7.0170    -2.8090     0.1800 ca         1 947      -0.110500
     17 C26          5.0370    -4.1240     0.5250 ca         1 947      -0.110500
     18 C27          6.4120    -4.0490     0.3440 ca         1 947      -0.103000
     19 N3           0.0760     2.8280    -0.1220 ns         1 947      -0.599300
     20 N6          -1.8340     1.6590    -0.5670 ns         1 947      -0.485400
     21 N7          -2.9550    -0.1430     0.5110 nd         1 947      -0.656000
     22 O14          1.1430     3.4900     2.0960 o          1 947      -0.523000
     23 O15          2.0650     4.2650    -0.1050 o          1 947      -0.523000
     24 O17         -0.5970     1.1990     1.3090 o          1 947      -0.531100
     25 S1           1.4740     3.2250     0.7140 sy         1 947       1.197300
     26 S4          -4.1430     0.7570    -1.5800 ss         1 947      -0.048400
     27 H1           2.9940     2.1440    -1.4330 ha         1 947       0.125000
     28 H2          -4.3200    -1.6700     1.0620 h4         1 947       0.058100
     29 H3           3.5090    -0.8360     2.4560 ha         1 947       0.127000
     30 H4           2.0960     1.1640     2.6550 ha         1 947       0.152000
     31 H5           4.5720     0.9530    -2.6310 hc         1 947       0.050700
     32 H6           5.5250    -0.3330    -1.9380 hc         1 947       0.050700
     33 H7           6.7340    -0.6890     0.0720 ha         1 947       0.118000
     34 H8           3.2000    -3.0300     0.6730 ha         1 947       0.118000
     35 H9           3.5730    -1.9220    -2.2510 hc         1 947       0.036700
     36 H10          2.6680    -0.6110    -3.0070 hc         1 947       0.036700
     37 H11          4.1360    -1.2260    -3.7680 hc         1 947       0.036700
     38 H12          8.0890    -2.7420     0.0500 ha         1 947       0.115500
     39 H13          4.5580    -5.0850     0.6570 ha         1 947       0.115500
     40 H14          7.0100    -4.9500     0.3350 ha         1 947       0.115000
     41 H15         -0.0400     3.2950    -1.0140 hn         1 947       0.341500
     42 H16         -1.8840     2.2610    -1.3760 hn         1 947       0.334500
     43 BR2         -6.4520    -1.3190    -1.2570 br         1 947      -0.011100
@<TRIPOS>BOND
     1     1    19 1   
     2     1    20 1   
     3     1    24 2   
     4     2     8 2   
     5     2    26 1   
     6     2    43 1   
     7     3     7 ar  
     8     3    10 ar  
     9     3    25 1   
    10     4     6 ar  
    11     4     9 ar  
    12     4    11 1   
    13     5    20 1   
    14     5    21 2   
    15     5    26 1   
    16     6     7 ar  
    17     6    12 1   
    18     7    27 1   
    19     8    21 1   
    20     8    28 1   
    21     9    10 ar  
    22     9    29 1   
    23    10    30 1   
    24    11    13 ar  
    25    11    14 ar  
    26    12    15 1   
    27    12    31 1   
    28    12    32 1   
    29    13    16 ar  
    30    13    33 1   
    31    14    17 ar  
    32    14    34 1   
    33    15    35 1   
    34    15    36 1   
    35    15    37 1   
    36    16    18 ar  
    37    16    38 1   
    38    17    18 ar  
    39    17    39 1   
    40    18    40 1   
    41    19    25 1   
    42    19    41 1   
    43    20    42 1   
    44    22    25 2   
    45    23    25 2   
@<TRIPOS>SUBSTRUCTURE
     1 947         1 TEMP              0 ****  ****    0 ROOT
