@<TRIPOS>MOLECULE
948
   25    26     1     0     0
SMALL
No Charge or Current Charge


@<TRIPOS>ATOM
      1 C1          29.6200    79.8640    34.6760 cx         1 948       0.062500
      2 C2          28.0780    79.7600    34.6100 c6         1 948       0.187300
      3 C3          27.4050    80.3020    35.9020 c6         1 948       0.126300
      4 C4          28.0100    79.6020    37.1540 c6         1 948       0.139300
      5 C5          29.5090    80.0090    37.3260 c6         1 948      -0.075700
      6 C6          30.2260    79.2580    38.4870 c3         1 948       0.165600
      7 C7          30.3320    79.9350    36.0140 cx         1 948       0.065500
      8 N8          30.4370    78.7220    35.1780 n5         1 948      -0.762400
      9 O2          27.5850    80.4680    33.4610 oh         1 948      -0.715000
     10 O3          25.9830    80.0880    35.8650 oh         1 948      -0.672000
     11 O4          27.2450    79.9680    38.3200 oh         1 948      -0.736000
     12 O6          30.1500    77.8320    38.3450 oh         1 948      -0.676000
     13 H1          30.0600    80.4320    33.8530 h1         1 948       0.123700
     14 H2          27.8280    78.6920    34.5170 h1         1 948       0.049700
     15 H3          27.6160    81.3800    35.9810 h1         1 948       0.062700
     16 H4          27.9520    78.5130    36.9940 h1         1 948       0.059700
     17 H5          29.5240    81.0680    37.6220 hc         1 948       0.076700
     18 H6          31.2750    79.5820    38.5160 h1         1 948       0.030700
     19 H7          29.7690    79.5630    39.4380 h1         1 948       0.030700
     20 H8          31.2470    80.5310    36.0550 h1         1 948       0.103700
     21 H9          29.8460    77.9960    35.6130 hn         1 948       0.407000
     22 H11         26.6110    80.5380    33.6110 ho         1 948       0.521000
     23 H12         25.7280    80.0700    36.8190 ho         1 948       0.465000
     24 H13         27.5200    79.3560    39.0430 ho         1 948       0.513000
     25 H14         30.7000    77.4430    39.0610 ho         1 948       0.448000
@<TRIPOS>BOND
     1     1     2 1   
     2     1     7 1   
     3     1     8 1   
     4     1    13 1   
     5     2     3 1   
     6     2     9 1   
     7     2    14 1   
     8     3     4 1   
     9     3    10 1   
    10     3    15 1   
    11     4     5 1   
    12     4    11 1   
    13     4    16 1   
    14     5     6 1   
    15     5     7 1   
    16     5    17 1   
    17     6    12 1   
    18     6    18 1   
    19     6    19 1   
    20     7     8 1   
    21     7    20 1   
    22     8    21 1   
    23     9    22 1   
    24    10    23 1   
    25    11    24 1   
    26    12    25 1   
@<TRIPOS>SUBSTRUCTURE
     1 948         1 TEMP              0 ****  ****    0 ROOT
