@<TRIPOS>MOLECULE
948
   25    26     1     0     0
SMALL
abcg2


@<TRIPOS>ATOM
      1 C1          29.6010    79.8510    34.7210 cx         1 948       0.062500
      2 C2          28.0860    79.7610    34.6770 c6         1 948       0.187300
      3 C3          27.4490    80.2590    35.9640 c6         1 948       0.126300
      4 C4          28.0790    79.6000    37.1830 c6         1 948       0.139300
      5 C5          29.5450    80.0290    37.3240 c6         1 948      -0.075700
      6 C6          30.2560    79.3010    38.4570 c3         1 948       0.165600
      7 C7          30.3120    79.9570    36.0180 cx         1 948       0.065500
      8 N8          30.3860    78.7150    35.2270 n5         1 948      -0.762400
      9 O2          27.6450    80.5310    33.5590 oh         1 948      -0.715000
     10 O3          26.0540    79.9790    35.8860 oh         1 948      -0.672000
     11 O4          27.3170    80.0230    38.3220 oh         1 948      -0.736000
     12 O6          30.2410    77.8920    38.2000 oh         1 948      -0.676000
     13 H1          30.0240    80.3320    33.8470 h1         1 948       0.123700
     14 H2          27.7860    78.7140    34.5370 h1         1 948       0.049700
     15 H3          27.6080    81.3440    36.0310 h1         1 948       0.062700
     16 H4          27.9950    78.5150    37.0850 h1         1 948       0.059700
     17 H5          29.5240    81.0880    37.6080 hc         1 948       0.076700
     18 H6          31.2860    79.6650    38.5310 h1         1 948       0.030700
     19 H7          29.7510    79.5190    39.4040 h1         1 948       0.030700
     20 H8          31.2500    80.5030    36.0390 h1         1 948       0.103700
     21 H9          29.7760    78.0070    35.6260 hn         1 948       0.407000
     22 H11         26.6780    80.5060    33.5520 ho         1 948       0.521000
     23 H12         25.6890    80.1420    36.7670 ho         1 948       0.465000
     24 H13         27.2590    79.2940    38.9500 ho         1 948       0.513000
     25 H14         30.6560    77.4440    38.9460 ho         1 948       0.448000
@<TRIPOS>BOND
     1     1     2 1   
     2     1     7 1   
     3     1     8 1   
     4     1    13 1   
     5     2     3 1   
     6     2     9 1   
     7     2    14 1   
     8     3     4 1   
     9     3    10 1   
    10     3    15 1   
    11     4     5 1   
    12     4    11 1   
    13     4    16 1   
    14     5     6 1   
    15     5     7 1   
    16     5    17 1   
    17     6    12 1   
    18     6    18 1   
    19     6    19 1   
    20     7     8 1   
    21     7    20 1   
    22     8    21 1   
    23     9    22 1   
    24    10    23 1   
    25    11    24 1   
    26    12    25 1   
@<TRIPOS>SUBSTRUCTURE
     1 948         1 TEMP              0 ****  ****    0 ROOT
