@<TRIPOS>MOLECULE
949
   41    43     1     0     0
SMALL
No Charge or Current Charge


@<TRIPOS>ATOM
      1 C15          2.1640     0.0190     0.8350 ca         1 949      -0.019000
      2 C16          2.9090     0.8410    -0.0350 ca         1 949      -0.247500
      3 C13          0.0810     0.9610    -0.0350 ca         1 949      -0.021800
      4 C17          2.2370     1.7260    -0.9020 ca         1 949      -0.019000
      5 C11         -3.6710     0.6190     0.0710 c          1 949       0.567300
      6 C10         -3.4040     2.1340    -0.1410 c5         1 949       0.054000
      7 C2          -1.2170    -2.0960    -0.4720 ca         1 949      -0.148000
      8 C1          -1.0420    -3.4800    -0.3200 ca         1 949       0.169000
      9 C6          -1.7960    -4.1930     0.6230 ca         1 949      -0.150000
     10 C5          -2.7330    -3.5140     1.4210 ca         1 949      -0.085000
     11 C4          -2.9090    -2.1270     1.2700 ca         1 949      -0.105000
     12 C3          -2.1550    -1.4060     0.3210 ca         1 949       0.017200
     13 C14          0.7600     0.0840     0.8360 ca         1 949      -0.092000
     14 C8          -1.4100     1.0340    -0.0360 ce         1 949       0.220900
     15 C7          -2.3190     0.0530     0.1600 cf         1 949      -0.278400
     16 C18          0.8320     1.7860    -0.8970 ca         1 949      -0.092000
     17 C23         -3.8950     2.9600     1.0730 c3         1 949      -0.085600
     18 O12         -4.7360     0.0150     0.1190 o          1 949      -0.500100
     19 O9          -1.9580     2.2870    -0.2410 os         1 949      -0.314100
     20 S19          4.7050     0.7610    -0.0380 sy         1 949       1.127600
     21 O21          5.2060     0.1750     1.2030 o          1 949      -0.541000
     22 N22          5.0250    -0.3830    -1.1550 n8         1 949      -1.006100
     23 O20          5.2820     1.9730    -0.6160 o          1 949      -0.541000
     24 H1           2.6670    -0.6680     1.5140 ha         1 949       0.142500
     25 H2           2.7960     2.3670    -1.5820 ha         1 949       0.142500
     26 H3          -0.6270    -1.5640    -1.2130 ha         1 949       0.131000
     27 H4          -1.6540    -5.2640     0.7350 ha         1 949       0.132000
     28 H5          -3.3180    -4.0600     2.1580 ha         1 949       0.119000
     29 H6          -3.6260    -1.6120     1.9040 ha         1 949       0.126000
     30 H7           0.2000    -0.5450     1.5220 ha         1 949       0.134000
     31 H8           0.3260     2.4710    -1.5730 ha         1 949       0.134000
     32 H9          -5.1370     2.5440    -1.4280 hc         1 949       0.056367
     33 H10         -3.8120     3.7030    -1.6240 hc         1 949       0.056367
     34 H11         -3.6790     2.0780    -2.3180 hc         1 949       0.056367
     35 H12         -3.4190     2.6200     2.0000 hc         1 949       0.056367
     36 H13         -3.6630     4.0240     0.9490 hc         1 949       0.056367
     37 H14         -4.9800     2.8660     1.2030 hc         1 949       0.056367
     38 H15          5.6860     0.1170    -1.7450 hn         1 949       0.476500
     39 H16          5.6370    -0.9950    -0.6200 hn         1 949       0.476500
     40 C24         -4.0450     2.6450    -1.4530 c3         1 949      -0.085600
     41 F25         -0.1410    -4.1300    -1.0880 f          1 949      -0.181000
@<TRIPOS>BOND
     1     1     2 ar  
     2     1    13 ar  
     3     1    24 1   
     4     2     4 ar  
     5     2    20 1   
     6     3    13 ar  
     7     3    14 1   
     8     3    16 ar  
     9     4    16 ar  
    10     4    25 1   
    11     5     6 1   
    12     5    15 1   
    13     5    18 2   
    14     6    17 1   
    15     6    19 1   
    16     6    40 1   
    17     7     8 ar  
    18     7    12 ar  
    19     7    26 1   
    20     8     9 ar  
    21     8    41 1   
    22     9    10 ar  
    23     9    27 1   
    24    10    11 ar  
    25    10    28 1   
    26    11    12 ar  
    27    11    29 1   
    28    12    15 1   
    29    13    30 1   
    30    14    15 2   
    31    14    19 1   
    32    16    31 1   
    33    17    35 1   
    34    17    36 1   
    35    17    37 1   
    36    20    21 2   
    37    20    22 1   
    38    20    23 2   
    39    22    38 1   
    40    22    39 1   
    41    32    40 1   
    42    33    40 1   
    43    34    40 1   
@<TRIPOS>SUBSTRUCTURE
     1 949         1 TEMP              0 ****  ****    0 ROOT
