@<TRIPOS>MOLECULE
949
   41    43     1     0     0
SMALL
bcc


@<TRIPOS>ATOM
      1 C15          2.1210     0.0130     0.8510 ca         1 949      -0.037000
      2 C16          2.8310     0.8690     0.0180 ca         1 949      -0.247500
      3 C13          0.0720     0.9750     0.0280 ca         1 949      -0.021800
      4 C17          2.1860     1.7860    -0.7950 ca         1 949      -0.037000
      5 C11         -3.6040     0.6610     0.0970 c          1 949       0.567300
      6 C10         -3.3520     2.1440    -0.1380 c5         1 949       0.030800
      7 C2          -1.2620    -2.0870    -0.5970 ca         1 949      -0.166000
      8 C1          -1.0820    -3.4460    -0.4440 ca         1 949       0.133900
      9 C6          -1.6990    -4.1710     0.5580 ca         1 949      -0.168000
     10 C5          -2.5290    -3.4910     1.4380 ca         1 949      -0.103000
     11 C4          -2.7250    -2.1230     1.3160 ca         1 949      -0.123000
     12 C3          -2.0850    -1.4090     0.3030 ca         1 949       0.017200
     13 C14          0.7410     0.0690     0.8530 ca         1 949      -0.110000
     14 C8          -1.3910     1.0320     0.0250 ce         1 949       0.220900
     15 C7          -2.3010     0.0330     0.1710 cf         1 949      -0.278400
     16 C18          0.8010     1.8410    -0.7830 ca         1 949      -0.110000
     17 C23         -3.8860     2.9880     1.0060 c3         1 949      -0.085600
     18 O12         -4.7040     0.1540     0.1770 o          1 949      -0.500100
     19 O9          -1.9130     2.2430    -0.1500 os         1 949      -0.290900
     20 S19          4.6040     0.7780     0.0170 sy         1 949       1.269200
     21 O21          5.0630     0.4330     1.3530 o          1 949      -0.611800
     22 N22          4.8430    -0.5670    -0.9070 n8         1 949      -0.895700
     23 O20          5.1100     1.9930    -0.6040 o          1 949      -0.611800
     24 H1           2.6300    -0.6880     1.4990 ha         1 949       0.160500
     25 H2           2.7440     2.4580    -1.4330 ha         1 949       0.160500
     26 H3          -0.7730    -1.5630    -1.4080 ha         1 949       0.149000
     27 H4          -1.5370    -5.2370     0.6480 ha         1 949       0.150000
     28 H5          -3.0230    -4.0370     2.2310 ha         1 949       0.137000
     29 H6          -3.3600    -1.6070     2.0230 ha         1 949       0.144000
     30 H7           0.1880    -0.5830     1.5140 ha         1 949       0.152000
     31 H8           0.2990     2.5550    -1.4220 ha         1 949       0.152000
     32 H9          -4.9590     2.4540    -1.5260 hc         1 949       0.056367
     33 H10         -3.6570     3.6370    -1.6640 hc         1 949       0.056367
     34 H11         -3.4390     1.9980    -2.3020 hc         1 949       0.056367
     35 H12         -3.4730     2.6720     1.9640 hc         1 949       0.056367
     36 H13         -3.6470     4.0400     0.8520 hc         1 949       0.056367
     37 H14         -4.9700     2.8900     1.0540 hc         1 949       0.056367
     38 H15          4.7060    -0.3970    -1.8980 hn         1 949       0.421300
     39 H16          5.7580    -0.9770    -0.7410 hn         1 949       0.421300
     40 C24         -3.8780     2.5830    -1.4930 c3         1 949      -0.085600
     41 F25         -0.2810    -4.0900    -1.3090 f          1 949      -0.145900
@<TRIPOS>BOND
     1     1     2 ar  
     2     1    13 ar  
     3     1    24 1   
     4     2     4 ar  
     5     2    20 1   
     6     3    13 ar  
     7     3    14 1   
     8     3    16 ar  
     9     4    16 ar  
    10     4    25 1   
    11     5     6 1   
    12     5    15 1   
    13     5    18 2   
    14     6    17 1   
    15     6    19 1   
    16     6    40 1   
    17     7     8 ar  
    18     7    12 ar  
    19     7    26 1   
    20     8     9 ar  
    21     8    41 1   
    22     9    10 ar  
    23     9    27 1   
    24    10    11 ar  
    25    10    28 1   
    26    11    12 ar  
    27    11    29 1   
    28    12    15 1   
    29    13    30 1   
    30    14    15 2   
    31    14    19 1   
    32    16    31 1   
    33    17    35 1   
    34    17    36 1   
    35    17    37 1   
    36    20    21 2   
    37    20    22 1   
    38    20    23 2   
    39    22    38 1   
    40    22    39 1   
    41    32    40 1   
    42    33    40 1   
    43    34    40 1   
@<TRIPOS>SUBSTRUCTURE
     1 949         1 TEMP              0 ****  ****    0 ROOT
