@<TRIPOS>MOLECULE
94A
   53    55     1     0     0
SMALL
abcg2


@<TRIPOS>ATOM
      1 O3          30.3120    21.2070    22.6590 o          1 94A      -0.549000
      2 C9          29.7530    20.2230    22.2000 c          1 94A       0.636100
      3 N2          29.7630    18.9910    22.7400 ns         1 94A      -0.499900
      4 C10         30.5920    18.6290    23.8890 c3         1 94A       0.124700
      5 C11         31.9820    18.1730    23.4450 c3         1 94A      -0.109100
      6 C12         29.8730    17.5640    24.7090 c3         1 94A      -0.109100
      7 O2          29.0150    20.2360    21.0580 os         1 94A      -0.466100
      8 C1          28.8080    21.5300    20.4240 c6         1 94A       0.180000
      9 C3          28.5560    21.2670    18.9840 cc         1 94A       0.183300
     10 N5          29.4840    20.9590    18.0430 nc         1 94A      -0.331000
     11 N6          28.8790    20.8000    16.8980 nd         1 94A      -0.206800
     12 N1          27.5610    21.0150    17.0900 na         1 94A       0.132800
     13 C2          27.3160    21.3040    18.3890 cd         1 94A      -0.134300
     14 C5          26.0310    21.6910    19.0600 c6         1 94A       0.249300
     15 C8          25.6000    23.1010    18.6430 c3         1 94A      -0.118100
     16 O1          25.0330    20.7390    18.6630 oh         1 94A      -0.652000
     17 C7          26.2740    21.6000    20.5810 c6         1 94A      -0.097400
     18 C6          27.5940    22.2330    21.0340 c6         1 94A      -0.092400
     19 C4          26.6420    20.8250    15.9770 c3         1 94A       0.145900
     20 C19         26.0820    19.4240    15.8830 ca         1 94A      -0.137300
     21 C20         26.6940    18.3270    16.4730 ca         1 94A      -0.055500
     22 C21         26.1600    17.0450    16.3470 ca         1 94A      -0.166000
     23 C22         24.9940    16.8520    15.6090 ca         1 94A       0.141100
     24 O25         24.3900    15.6460    15.4240 os         1 94A      -0.350100
     25 C25         24.9880    14.4960    16.0230 c3         1 94A       0.148900
     26 C23         24.3710    17.9510    15.0090 ca         1 94A      -0.166000
     27 C24         24.9110    19.2170    15.1500 ca         1 94A      -0.055500
     28 H1          29.3290    18.2500    22.2100 hn         1 94A       0.322500
     29 H2          30.6920    19.5350    24.4870 h1         1 94A       0.077700
     30 H3          32.6050    17.9530    24.3140 hc         1 94A       0.043533
     31 H4          31.9090    17.2690    22.8350 hc         1 94A       0.043533
     32 H5          32.4720    18.9500    22.8560 hc         1 94A       0.043533
     33 H6          30.4730    17.2900    25.5780 hc         1 94A       0.043533
     34 H7          28.9040    17.9270    25.0550 hc         1 94A       0.043533
     35 H8          29.7130    16.6620    24.1110 hc         1 94A       0.043533
     36 H9          29.7120    22.1180    20.5670 h1         1 94A       0.094700
     37 H10         24.6540    23.3450    19.1330 hc         1 94A       0.048367
     38 H11         26.3430    23.8420    18.9390 hc         1 94A       0.048367
     39 H12         25.4600    23.1630    17.5640 hc         1 94A       0.048367
     40 H13         24.1870    21.0290    19.0280 ho         1 94A       0.447000
     41 H14         25.4340    22.0740    21.0930 hc         1 94A       0.059700
     42 H15         26.2680    20.5420    20.8510 hc         1 94A       0.059700
     43 H16         27.6740    22.2010    22.1210 hc         1 94A       0.062200
     44 H17         27.6320    23.2860    20.7450 hc         1 94A       0.062200
     45 H18         27.2050    21.0790    15.0780 h1         1 94A       0.074200
     46 H19         25.8350    21.5450    16.0790 h1         1 94A       0.074200
     47 H20         27.5980    18.4540    17.0530 ha         1 94A       0.118000
     48 H21         26.6600    16.2170    16.8260 ha         1 94A       0.123500
     49 H22         24.3550    13.6550    15.7510 h1         1 94A       0.042367
     50 H23         25.9980    14.3350    15.6400 h1         1 94A       0.042367
     51 H24         25.0220    14.5930    17.1110 h1         1 94A       0.042367
     52 H25         23.4610    17.7950    14.4440 ha         1 94A       0.123500
     53 H26         24.4110    20.0610    14.6890 ha         1 94A       0.118000
@<TRIPOS>BOND
     1     1     2 2   
     2     2     3 1   
     3     2     7 1   
     4     3     4 1   
     5     3    28 1   
     6     4     5 1   
     7     4     6 1   
     8     4    29 1   
     9     5    30 1   
    10     5    31 1   
    11     5    32 1   
    12     6    33 1   
    13     6    34 1   
    14     6    35 1   
    15     7     8 1   
    16     8     9 1   
    17     8    18 1   
    18     8    36 1   
    19     9    10 1   
    20     9    13 2   
    21    10    11 2   
    22    11    12 1   
    23    12    13 1   
    24    12    19 1   
    25    13    14 1   
    26    14    15 1   
    27    14    16 1   
    28    14    17 1   
    29    15    37 1   
    30    15    38 1   
    31    15    39 1   
    32    16    40 1   
    33    17    18 1   
    34    17    41 1   
    35    17    42 1   
    36    18    43 1   
    37    18    44 1   
    38    19    20 1   
    39    19    45 1   
    40    19    46 1   
    41    20    21 ar  
    42    20    27 ar  
    43    21    22 ar  
    44    21    47 1   
    45    22    23 ar  
    46    22    48 1   
    47    23    24 1   
    48    23    26 ar  
    49    24    25 1   
    50    25    49 1   
    51    25    50 1   
    52    25    51 1   
    53    26    27 ar  
    54    26    52 1   
    55    27    53 1   
@<TRIPOS>SUBSTRUCTURE
     1 94A         1 TEMP              0 ****  ****    0 ROOT
