@<TRIPOS>MOLECULE
94A
   53    55     1     0     0
SMALL
No Charge or Current Charge


@<TRIPOS>ATOM
      1 O3          30.4940    21.2960    22.6910 o          1 94A      -0.549000
      2 C9          29.9610    20.3160    22.1980 c          1 94A       0.636100
      3 N2          30.0040    19.0520    22.7120 ns         1 94A      -0.499900
      4 C10         30.7070    18.6700    23.9340 c3         1 94A       0.124700
      5 C11         32.2050    18.4390    23.6540 c3         1 94A      -0.109100
      6 C12         30.0360    17.4380    24.5700 c3         1 94A      -0.109100
      7 O2          29.2330    20.2970    21.0490 os         1 94A      -0.466100
      8 C1          28.9650    21.5180    20.3200 c6         1 94A       0.180000
      9 C3          28.4830    21.1990    18.9160 cc         1 94A       0.183300
     10 N5          29.2960    20.7700    17.9060 nc         1 94A      -0.331000
     11 N6          28.5540    20.5810    16.8430 nd         1 94A      -0.206800
     12 N1          27.2550    20.8910    17.1810 na         1 94A       0.132800
     13 C2          27.1920    21.2990    18.5010 cd         1 94A      -0.134300
     14 C5          26.0310    21.7900    19.3450 c6         1 94A       0.249300
     15 C8          25.6090    23.2090    18.8770 c3         1 94A      -0.118100
     16 O1          24.9050    20.9310    19.1920 oh         1 94A      -0.652000
     17 C7          26.4570    21.7940    20.8450 c6         1 94A      -0.097400
     18 C6          27.8880    22.3710    21.0570 c6         1 94A      -0.092400
     19 C4          26.1600    20.7640    16.2000 c3         1 94A       0.145900
     20 C19         25.8080    19.3200    15.8340 ca         1 94A      -0.137300
     21 C20         25.7000    18.3290    16.8310 ca         1 94A      -0.055500
     22 C21         25.3730    17.0050    16.4870 ca         1 94A      -0.166000
     23 C22         25.1450    16.6610    15.1380 ca         1 94A       0.141100
     24 O25         24.8200    15.3800    14.7400 os         1 94A      -0.350100
     25 C25         24.6920    14.2950    15.6770 c3         1 94A       0.148900
     26 C23         25.2470    17.6500    14.1470 ca         1 94A      -0.166000
     27 C24         25.5740    18.9730    14.4890 ca         1 94A      -0.055500
     28 H1          29.5130    18.3430    22.1830 hn         1 94A       0.322500
     29 H2          30.6210    19.5010    24.6490 h1         1 94A       0.077700
     30 H3          32.7340    18.1800    24.5780 hc         1 94A       0.043533
     31 H4          32.3460    17.6220    22.9350 hc         1 94A       0.043533
     32 H5          32.6660    19.3440    23.2410 hc         1 94A       0.043533
     33 H6          30.5300    17.1740    25.5120 hc         1 94A       0.043533
     34 H7          28.9810    17.6440    24.7870 hc         1 94A       0.043533
     35 H8          30.0890    16.5730    23.8990 hc         1 94A       0.043533
     36 H9          29.8990    22.0950    20.2550 h1         1 94A       0.094700
     37 H10         24.8070    23.6180    19.5050 hc         1 94A       0.048367
     38 H11         26.4490    23.9120    18.9170 hc         1 94A       0.048367
     39 H12         25.2440    23.2020    17.8440 hc         1 94A       0.048367
     40 H13         24.2050    21.2810    19.7820 ho         1 94A       0.447000
     41 H14         25.7340    22.3630    21.4440 hc         1 94A       0.059700
     42 H15         26.4320    20.7670    21.2370 hc         1 94A       0.059700
     43 H16         28.1100    22.4280    22.1300 hc         1 94A       0.062200
     44 H17         27.9320    23.4050    20.6900 hc         1 94A       0.062200
     45 H18         26.4560    21.3120    15.2970 h1         1 94A       0.074200
     46 H19         25.2650    21.2540    16.5960 h1         1 94A       0.074200
     47 H20         25.8670    18.5810    17.8760 ha         1 94A       0.118000
     48 H21         25.2990    16.2660    17.2790 ha         1 94A       0.123500
     49 H22         24.4310    13.3680    15.1520 h1         1 94A       0.042367
     50 H23         25.6360    14.1280    16.2120 h1         1 94A       0.042367
     51 H24         23.9030    14.5040    16.4110 h1         1 94A       0.042367
     52 H25         25.0700    17.3890    13.1070 ha         1 94A       0.123500
     53 H26         25.6470    19.7260    13.7070 ha         1 94A       0.118000
@<TRIPOS>BOND
     1     1     2 2   
     2     2     3 1   
     3     2     7 1   
     4     3     4 1   
     5     3    28 1   
     6     4     5 1   
     7     4     6 1   
     8     4    29 1   
     9     5    30 1   
    10     5    31 1   
    11     5    32 1   
    12     6    33 1   
    13     6    34 1   
    14     6    35 1   
    15     7     8 1   
    16     8     9 1   
    17     8    18 1   
    18     8    36 1   
    19     9    10 1   
    20     9    13 2   
    21    10    11 2   
    22    11    12 1   
    23    12    13 1   
    24    12    19 1   
    25    13    14 1   
    26    14    15 1   
    27    14    16 1   
    28    14    17 1   
    29    15    37 1   
    30    15    38 1   
    31    15    39 1   
    32    16    40 1   
    33    17    18 1   
    34    17    41 1   
    35    17    42 1   
    36    18    43 1   
    37    18    44 1   
    38    19    20 1   
    39    19    45 1   
    40    19    46 1   
    41    20    21 ar  
    42    20    27 ar  
    43    21    22 ar  
    44    21    47 1   
    45    22    23 ar  
    46    22    48 1   
    47    23    24 1   
    48    23    26 ar  
    49    24    25 1   
    50    25    49 1   
    51    25    50 1   
    52    25    51 1   
    53    26    27 ar  
    54    26    52 1   
    55    27    53 1   
@<TRIPOS>SUBSTRUCTURE
     1 94A         1 TEMP              0 ****  ****    0 ROOT
