@<TRIPOS>MOLECULE
94B
   25    26     1     0     0
SMALL
abcg2


@<TRIPOS>ATOM
      1 C1          -1.2110     1.4040    -0.4270 cx         1 94B       0.069500
      2 C2          -1.6860    -0.0090    -0.5900 c6         1 94B       0.200300
      3 C3          -0.8400    -0.9580     0.2470 c6         1 94B       0.091300
      4 C4           0.6400    -0.8170    -0.1170 c6         1 94B       0.183300
      5 C5           1.1940     0.5660     0.2410 c6         1 94B      -0.026700
      6 C6           2.4570     0.9150    -0.5390 c3         1 94B       0.171600
      7 C7           0.1830     1.6720    -0.0190 cx         1 94B       0.059500
      8 O6           3.4800    -0.0170    -0.2930 oh         1 94B      -0.636000
      9 O4           1.3950    -1.8020     0.5450 oh         1 94B      -0.699000
     10 O2          -1.2410    -2.2940    -0.0220 oh         1 94B      -0.681000
     11 O3          -3.0500    -0.0610    -0.2370 oh         1 94B      -0.711000
     12 N12         -0.9080     1.8210     0.9300 n5         1 94B      -0.776400
     13 H1          -1.6820     2.1300    -1.0850 h1         1 94B       0.086700
     14 H2          -1.5530    -0.2830    -1.6480 h1         1 94B       0.043700
     15 H3          -0.9770    -0.7240     1.3090 h1         1 94B       0.080700
     16 H4           0.7200    -0.9400    -1.2120 h1         1 94B       0.035700
     17 H5           1.4260     0.5730     1.3130 hc         1 94B       0.092700
     18 H6           2.2020     0.9630    -1.6080 h1         1 94B       0.012200
     19 H7           2.7680     1.9280    -0.2470 h1         1 94B       0.012200
     20 H8           0.6100     2.5950    -0.4030 h1         1 94B       0.073700
     21 H9           4.2460     0.2510    -0.8090 ho         1 94B       0.439000
     22 H10          0.9410    -2.6400     0.4010 ho         1 94B       0.510000
     23 H11         -1.6110    -2.6780     0.7770 ho         1 94B       0.453000
     24 H12         -3.3710    -0.9470    -0.4330 ho         1 94B       0.510000
     25 H13         -1.1400     2.7960     1.0710 hn         1 94B       0.405000
@<TRIPOS>BOND
     1     1     2 1   
     2     1     7 1   
     3     1    12 1   
     4     1    13 1   
     5     2     3 1   
     6     2    11 1   
     7     2    14 1   
     8     3     4 1   
     9     3    10 1   
    10     3    15 1   
    11     4     5 1   
    12     4     9 1   
    13     4    16 1   
    14     5     6 1   
    15     5     7 1   
    16     5    17 1   
    17     6     8 1   
    18     6    18 1   
    19     6    19 1   
    20     7    12 1   
    21     7    20 1   
    22     8    21 1   
    23     9    22 1   
    24    10    23 1   
    25    11    24 1   
    26    12    25 1   
@<TRIPOS>SUBSTRUCTURE
     1 94B         1 TEMP              0 ****  ****    0 ROOT
