@<TRIPOS>MOLECULE
94B
   25    26     1     0     0
SMALL
No Charge or Current Charge


@<TRIPOS>ATOM
      1 C1          -1.2920     1.4070    -0.3180 cx         1 94B       0.069500
      2 C2          -1.7560    -0.0600    -0.4850 c6         1 94B       0.200300
      3 C3          -0.8090    -1.0550     0.2530 c6         1 94B       0.091300
      4 C4           0.6520    -0.8420    -0.2440 c6         1 94B       0.183300
      5 C5           1.2050     0.5630     0.1700 c6         1 94B      -0.026700
      6 C6           2.5610     0.9230    -0.5190 c3         1 94B       0.171600
      7 C7           0.1780     1.6970    -0.0880 cx         1 94B       0.059500
      8 O6           3.6780     0.1830    -0.0110 oh         1 94B      -0.636000
      9 O4           1.4390    -1.9140     0.2890 oh         1 94B      -0.699000
     10 O2          -1.2060    -2.4320     0.0310 oh         1 94B      -0.681000
     11 O3          -3.1140    -0.1860    -0.0180 oh         1 94B      -0.711000
     12 N12         -0.8310     2.0050     0.9580 n5         1 94B      -0.776400
     13 H1          -1.8450     2.0930    -0.9640 h1         1 94B       0.086700
     14 H2          -1.7130    -0.2820    -1.5630 h1         1 94B       0.043700
     15 H3          -0.8380    -0.8220     1.3290 h1         1 94B       0.080700
     16 H4           0.6470    -0.9020    -1.3440 h1         1 94B       0.035700
     17 H5           1.4060     0.5550     1.2500 hc         1 94B       0.092700
     18 H6           2.4590     0.7650    -1.6010 h1         1 94B       0.012200
     19 H7           2.7520     1.9940    -0.3640 h1         1 94B       0.012200
     20 H8           0.6000     2.5780    -0.5770 h1         1 94B       0.073700
     21 H9           4.4640     0.4560    -0.5340 ho         1 94B       0.439000
     22 H10          0.7970    -2.6660     0.3100 ho         1 94B       0.510000
     23 H11         -1.9500    -2.6210     0.6490 ho         1 94B       0.453000
     24 H12         -3.4680    -1.0120    -0.4190 ho         1 94B       0.510000
     25 H13         -1.0250     3.0190     0.9570 hn         1 94B       0.405000
@<TRIPOS>BOND
     1     1     2 1   
     2     1     7 1   
     3     1    12 1   
     4     1    13 1   
     5     2     3 1   
     6     2    11 1   
     7     2    14 1   
     8     3     4 1   
     9     3    10 1   
    10     3    15 1   
    11     4     5 1   
    12     4     9 1   
    13     4    16 1   
    14     5     6 1   
    15     5     7 1   
    16     5    17 1   
    17     6     8 1   
    18     6    18 1   
    19     6    19 1   
    20     7    12 1   
    21     7    20 1   
    22     8    21 1   
    23     9    22 1   
    24    10    23 1   
    25    11    24 1   
    26    12    25 1   
@<TRIPOS>SUBSTRUCTURE
     1 94B         1 TEMP              0 ****  ****    0 ROOT
