@<TRIPOS>MOLECULE
94C
   48    51     1     0     0
SMALL
bcc


@<TRIPOS>ATOM
      1 C25          5.9720     0.4990     1.9550 ca         1 94C      -0.147000
      2 C26          6.6770     1.1900     0.9790 ca         1 94C      -0.090000
      3 C24          4.6710     0.0870     1.7080 ca         1 94C      -0.073000
      4 C27          6.0870     1.4720    -0.2450 ca         1 94C      -0.173000
      5 C19          0.3140     0.4230    -0.1240 ca         1 94C      -0.103000
      6 C5          -0.2770    -3.5210    -0.9330 ca         1 94C       0.688900
      7 C18          0.0420    -0.9490    -0.2690 ca         1 94C      -0.260600
      8 C23          4.0580     0.3630     0.4890 cp         1 94C      -0.089000
      9 C22          2.6750    -0.0720     0.2090 cp         1 94C      -0.053000
     10 C3           1.0980    -1.8790    -0.2690 ca         1 94C       0.393600
     11 C28          4.7910     1.0510    -0.4650 ca         1 94C       0.165900
     12 C2           2.3930    -1.3960     0.0100 ca         1 94C       0.113600
     13 C20          1.5970     0.8370     0.1100 ca         1 94C       0.048400
     14 C7          -1.2630    -1.5060    -0.5160 ca         1 94C       0.722200
     15 C14         -8.4660     1.2850     0.0150 c3         1 94C      -0.077100
     16 C13         -7.1600     0.7390    -0.5360 c3         1 94C      -0.152400
     17 C12         -5.9430     1.2290     0.2260 c          1 94C       0.675100
     18 C9          -2.6490     0.0460     0.7930 c6         1 94C       0.192300
     19 C17         -3.6220    -1.2260    -1.0060 c6         1 94C       0.192300
     20 C10         -3.5090     1.2450     0.4470 c6         1 94C       0.090000
     21 C16         -4.4920    -0.0300    -1.3630 c6         1 94C       0.090000
     22 N4           0.9310    -3.1840    -0.5800 nb         1 94C      -0.695000
     23 N6          -1.3770    -2.7560    -0.9080 nb         1 94C      -0.793000
     24 N8          -2.3870    -0.7520    -0.4030 nh         1 94C      -0.775300
     25 N11         -4.7290     0.8100    -0.2060 n          1 94C      -0.488800
     26 O15         -6.0600     1.9710     1.1920 o          1 94C      -0.599100
     27 F29          4.2120     1.3120    -1.6450 f          1 94C      -0.135900
     28 F1           3.3840    -2.2830     0.0440 f          1 94C      -0.105900
     29 CL           1.9170     2.5210     0.3000 cl         1 94C      -0.082400
     30 H1           6.4330     0.2810     2.9090 ha         1 94C       0.139000
     31 H2           7.6920     1.5140     1.1670 ha         1 94C       0.137000
     32 H3           4.1170    -0.4450     2.4700 ha         1 94C       0.141000
     33 H4           6.6230     2.0070    -1.0180 ha         1 94C       0.152000
     34 H5          -0.4690     1.1600    -0.2290 ha         1 94C       0.159000
     35 H6          -0.4280    -4.5450    -1.2560 h5         1 94C       0.052100
     36 H7          -8.6210     0.9960     1.0530 hc         1 94C       0.043033
     37 H8          -8.5060     2.3720    -0.0410 hc         1 94C       0.043033
     38 H9          -9.2990     0.8930    -0.5670 hc         1 94C       0.043033
     39 H10         -7.1800    -0.3540    -0.5160 hc         1 94C       0.055700
     40 H11         -7.0610     1.0120    -1.5900 hc         1 94C       0.055700
     41 H12         -1.7270     0.3720     1.2640 h1         1 94C       0.061450
     42 H13         -3.1740    -0.5810     1.5250 h1         1 94C       0.061450
     43 H14         -4.1610    -1.8930    -0.3240 h1         1 94C       0.061450
     44 H15         -3.3960    -1.7830    -1.9130 h1         1 94C       0.061450
     45 H16         -3.7550     1.7920     1.3530 h1         1 94C       0.063200
     46 H17         -2.9560     1.9190    -0.2170 h1         1 94C       0.063200
     47 H18         -3.9950     0.5560    -2.1440 h1         1 94C       0.063200
     48 H19         -5.4260    -0.3960    -1.7790 h1         1 94C       0.063200
@<TRIPOS>BOND
     1     1     2 ar  
     2     1     3 ar  
     3     1    30 1   
     4     2     4 ar  
     5     2    31 1   
     6     3     8 ar  
     7     3    32 1   
     8     4    11 ar  
     9     4    33 1   
    10     5     7 ar  
    11     5    13 ar  
    12     5    34 1   
    13     6    22 ar  
    14     6    23 ar  
    15     6    35 1   
    16     7    10 ar  
    17     7    14 ar  
    18     8     9 1   
    19     8    11 ar  
    20     9    12 ar  
    21     9    13 ar  
    22    10    12 ar  
    23    10    22 ar  
    24    11    27 1   
    25    12    28 1   
    26    13    29 1   
    27    14    23 ar  
    28    14    24 1   
    29    15    16 1   
    30    15    36 1   
    31    15    37 1   
    32    15    38 1   
    33    16    17 1   
    34    16    39 1   
    35    16    40 1   
    36    17    25 1   
    37    17    26 2   
    38    18    20 1   
    39    18    24 1   
    40    18    41 1   
    41    18    42 1   
    42    19    21 1   
    43    19    24 1   
    44    19    43 1   
    45    19    44 1   
    46    20    25 1   
    47    20    45 1   
    48    20    46 1   
    49    21    25 1   
    50    21    47 1   
    51    21    48 1   
@<TRIPOS>SUBSTRUCTURE
     1 94C         1 TEMP              0 ****  ****    0 ROOT
