@<TRIPOS>MOLECULE
94C
   48    51     1     0     0
SMALL
No Charge or Current Charge


@<TRIPOS>ATOM
      1 C25          6.1290     0.7570     1.5840 ca         1 94C      -0.129000
      2 C26          6.6390     1.6340     0.6120 ca         1 94C      -0.072000
      3 C24          4.8440     0.2070     1.4350 ca         1 94C      -0.055000
      4 C27          5.8620     1.9570    -0.5130 ca         1 94C      -0.155000
      5 C19          0.2410     0.1650     0.1170 ca         1 94C      -0.085000
      6 C5          -0.1400    -3.8480    -0.6150 ca         1 94C       0.162900
      7 C18          0.0950    -1.2190    -0.1200 ca         1 94C      -0.130000
      8 C23          4.0430     0.5270     0.3130 cp         1 94C      -0.089000
      9 C22          2.6800    -0.0650     0.1640 cp         1 94C      -0.053000
     10 C3           1.2450    -2.0400    -0.2290 ca         1 94C       0.000000
     11 C28          4.5780     1.4080    -0.6620 ca         1 94C       0.201000
     12 C2           2.5210    -1.4520    -0.0800 ca         1 94C       0.214000
     13 C20          1.5140     0.7340     0.2600 ca         1 94C       0.140000
     14 C7          -1.1740    -1.8320    -0.2680 ca         1 94C       0.393900
     15 C14         -8.2820     2.2210    -0.6430 c3         1 94C      -0.077100
     16 C13         -7.0830     1.2660    -0.8480 c3         1 94C      -0.152400
     17 C12         -5.9560     1.3620     0.2030 c          1 94C       0.608100
     18 C9          -2.8340    -0.7010     1.2080 c6         1 94C       0.192300
     19 C17         -3.5470    -1.4510    -1.0060 c6         1 94C       0.192300
     20 C10         -3.7820     0.5260     1.1440 c6         1 94C       0.090000
     21 C16         -4.5300    -0.2550    -1.1390 c6         1 94C       0.090000
     22 N4           1.1100    -3.3630    -0.4770 nb         1 94C      -0.169000
     23 N6          -1.2870    -3.1500    -0.5230 nb         1 94C      -0.267000
     24 N8          -2.3840    -1.1120    -0.1450 nh         1 94C      -0.775300
     25 N11         -4.8980     0.4240     0.1480 n          1 94C      -0.421800
     26 O15         -6.0010     2.1970     1.0990 o          1 94C      -0.599100
     27 F29          3.8590     1.7210    -1.7640 f          1 94C      -0.171000
     28 F1           3.6230    -2.2340    -0.1860 f          1 94C      -0.141000
     29 Cl           1.6160     2.4630     0.5930 cl         1 94C      -0.174000
     30 H1           6.7310     0.5020     2.4550 ha         1 94C       0.121000
     31 H2           7.6340     2.0580     0.7280 ha         1 94C       0.119000
     32 H3           4.4600    -0.4710     2.1950 ha         1 94C       0.123000
     33 H4           6.2530     2.6300    -1.2720 ha         1 94C       0.134000
     34 H5          -0.6300     0.8100     0.1870 ha         1 94C       0.141000
     35 H6          -0.2300    -4.9130    -0.8170 h5         1 94C       0.052100
     36 H7          -8.7670     2.0340     0.3230 hc         1 94C       0.043033
     37 H8          -7.9550     3.2680    -0.6710 hc         1 94C       0.043033
     38 H9          -9.0270     2.0750    -1.4340 hc         1 94C       0.043033
     39 H10         -7.4100     0.2210    -0.9000 hc         1 94C       0.055700
     40 H11         -6.6370     1.4030    -1.8390 hc         1 94C       0.055700
     41 H12         -1.9750    -0.4510     1.8490 h1         1 94C       0.061450
     42 H13         -3.3660    -1.5330     1.6930 h1         1 94C       0.061450
     43 H14         -4.0890    -2.3090    -0.5840 h1         1 94C       0.061450
     44 H15         -3.2110    -1.7400    -2.0140 h1         1 94C       0.061450
     45 H16         -4.1980     0.6910     2.1480 h1         1 94C       0.063200
     46 H17         -3.1820     1.4130     0.8950 h1         1 94C       0.063200
     47 H18         -4.0720     0.4940    -1.8010 h1         1 94C       0.063200
     48 H19         -5.4300    -0.6260    -1.6470 h1         1 94C       0.063200
@<TRIPOS>BOND
     1     1     2 ar  
     2     1     3 ar  
     3     1    30 1   
     4     2     4 ar  
     5     2    31 1   
     6     3     8 ar  
     7     3    32 1   
     8     4    11 ar  
     9     4    33 1   
    10     5     7 ar  
    11     5    13 ar  
    12     5    34 1   
    13     6    22 ar  
    14     6    23 ar  
    15     6    35 1   
    16     7    10 ar  
    17     7    14 ar  
    18     8     9 1   
    19     8    11 ar  
    20     9    12 ar  
    21     9    13 ar  
    22    10    12 ar  
    23    10    22 ar  
    24    11    27 1   
    25    12    28 1   
    26    13    29 1   
    27    14    23 ar  
    28    14    24 1   
    29    15    16 1   
    30    15    36 1   
    31    15    37 1   
    32    15    38 1   
    33    16    17 1   
    34    16    39 1   
    35    16    40 1   
    36    17    25 1   
    37    17    26 2   
    38    18    20 1   
    39    18    24 1   
    40    18    41 1   
    41    18    42 1   
    42    19    21 1   
    43    19    24 1   
    44    19    43 1   
    45    19    44 1   
    46    20    25 1   
    47    20    45 1   
    48    20    46 1   
    49    21    25 1   
    50    21    47 1   
    51    21    48 1   
@<TRIPOS>SUBSTRUCTURE
     1 94C         1 TEMP              0 ****  ****    0 ROOT
