@<TRIPOS>MOLECULE
94D
   32    33     1     0     0
SMALL
abcg2


@<TRIPOS>ATOM
      1 C7          18.2120    60.2280    17.1440 cc         1 94D      -0.036000
      2 C9          16.2560    60.6140    16.1300 cc         1 94D       0.220300
      3 C10         17.0300    61.7280    15.9680 cd         1 94D      -0.266000
      4 C3          19.1050    59.4040    17.9370 cc         1 94D       0.382000
      5 C1          19.4400    57.7990    19.4400 cd         1 94D       0.684300
      6 C4          20.4700    59.4860    17.9660 cd         1 94D      -0.261300
      7 C11         18.2810    61.4880    16.6170 cd         1 94D      -0.157000
      8 C15         22.1780    58.5840    15.5600 c3         1 94D      -0.084100
      9 C14         22.6180    59.6250    16.5900 c3         1 94D      -0.062700
     10 C13         21.4080    60.3580    17.1960 c3         1 94D       0.021900
     11 C16         23.5900    60.6330    15.9780 c3         1 94D      -0.084100
     12 N2          18.5350    58.4390    18.7650 nc         1 94D      -0.648000
     13 N6          19.1680    56.8480    20.3840 nv         1 94D      -1.046900
     14 O17         13.8700    59.7200    16.9310 o          1 94D      -0.909500
     15 O18         13.9840    61.3850    14.9820 o          1 94D      -0.909500
     16 O19         14.7540    58.9610    14.6550 o          1 94D      -0.909500
     17 O8          16.9860    59.6930    16.8500 os         1 94D      -0.191000
     18 P12         14.5520    60.1230    15.6260 p5         1 94D       1.083200
     19 S5          21.0820    58.3180    19.1190 ss         1 94D      -0.266400
     20 H1          16.7350    62.6270    15.4520 ha         1 94D       0.129000
     21 H2          19.1050    62.1750    16.7100 ha         1 94D       0.087000
     22 H3          21.4900    57.8570    15.9950 hc         1 94D       0.028700
     23 H4          21.6690    59.0690    14.7230 hc         1 94D       0.028700
     24 H5          23.0390    58.0410    15.1630 hc         1 94D       0.028700
     25 H6          23.1420    59.1060    17.4010 hc         1 94D       0.033700
     26 H7          21.7730    61.1700    17.8360 hc         1 94D       0.049700
     27 H8          20.8470    60.8310    16.3880 hc         1 94D       0.049700
     28 H9          23.9310    61.3540    16.7250 hc         1 94D       0.028700
     29 H10         24.4660    60.1300    15.5660 hc         1 94D       0.028700
     30 H11         23.1090    61.1890    15.1680 hc         1 94D       0.028700
     31 H12         18.2420    56.4470    20.3230 hn         1 94D       0.460000
     32 H13         19.8920    56.1780    20.5900 hn         1 94D       0.460000
@<TRIPOS>BOND
     1     1     4 1   
     2     1     7 2   
     3     1    17 1   
     4     2     3 2   
     5     2    17 1   
     6     2    18 1   
     7     3     7 1   
     8     3    20 1   
     9     4     6 2   
    10     4    12 1   
    11     5    12 2   
    12     5    13 1   
    13     5    19 1   
    14     6    10 1   
    15     6    19 1   
    16     7    21 1   
    17     8     9 1   
    18     8    22 1   
    19     8    23 1   
    20     8    24 1   
    21     9    10 1   
    22     9    11 1   
    23     9    25 1   
    24    10    26 1   
    25    10    27 1   
    26    11    28 1   
    27    11    29 1   
    28    11    30 1   
    29    13    31 1   
    30    13    32 1   
    31    14    18 1   
    32    15    18 1   
    33    16    18 1   
@<TRIPOS>SUBSTRUCTURE
     1 94D         1 TEMP              0 ****  ****    0 ROOT
