@<TRIPOS>MOLECULE
94D
   32    33     1     0     0
SMALL
No Charge or Current Charge


@<TRIPOS>ATOM
      1 C7          18.0310    59.9850    17.0310 cc         1 94D      -0.036000
      2 C9          16.0480    60.6740    16.2980 cc         1 94D       0.220300
      3 C10         16.9990    61.5050    15.7550 cd         1 94D      -0.266000
      4 C3          18.9750    59.1690    17.7830 cc         1 94D       0.382000
      5 C1          19.4660    57.6210    19.2420 cd         1 94D       0.684300
      6 C4          20.3640    59.2810    17.7330 cd         1 94D      -0.261300
      7 C11         18.2580    61.0750    16.2220 cd         1 94D      -0.157000
      8 C15         22.9480    58.4670    15.9450 c3         1 94D      -0.084100
      9 C14         22.7450    59.7810    16.7400 c3         1 94D      -0.062700
     10 C13         21.2430    60.1730    16.8660 c3         1 94D       0.021900
     11 C16         23.5640    60.9270    16.1010 c3         1 94D      -0.084100
     12 N2          18.4800    58.2000    18.6270 nc         1 94D      -0.648000
     13 N6          19.1780    56.6420    20.1050 nv         1 94D      -1.046900
     14 O17         13.5550    60.8940    17.4180 o          1 94D      -0.909500
     15 O18         13.8310    61.9070    15.1070 o          1 94D      -0.909500
     16 O19         13.7450    59.4040    15.5200 o          1 94D      -0.909500
     17 O8          16.6720    59.7370    17.0990 os         1 94D      -0.191000
     18 P12         14.0980    60.7630    16.0320 p5         1 94D       1.083200
     19 S5          21.0840    58.1670    18.9000 ss         1 94D      -0.266400
     20 H1          16.8020    62.3440    15.0960 ha         1 94D       0.129000
     21 H2          19.1970    61.5570    15.9880 ha         1 94D       0.087000
     22 H3          22.4020    57.6330    16.3990 hc         1 94D       0.028700
     23 H4          22.5960    58.5780    14.9120 hc         1 94D       0.028700
     24 H5          24.0100    58.1940    15.9150 hc         1 94D       0.028700
     25 H6          23.1540    59.6370    17.7470 hc         1 94D       0.033700
     26 H7          21.1800    61.1990    17.2500 hc         1 94D       0.049700
     27 H8          20.8460    60.1910    15.8450 hc         1 94D       0.049700
     28 H9          23.4790    61.8440    16.6960 hc         1 94D       0.028700
     29 H10         24.6270    60.6600    16.0460 hc         1 94D       0.028700
     30 H11         23.2110    61.1420    15.0860 hc         1 94D       0.028700
     31 H12         18.2460    56.2530    20.0270 hn         1 94D       0.460000
     32 H13         19.9250    56.0020    20.3450 hn         1 94D       0.460000
@<TRIPOS>BOND
     1     1     4 1   
     2     1     7 2   
     3     1    17 1   
     4     2     3 2   
     5     2    17 1   
     6     2    18 1   
     7     3     7 1   
     8     3    20 1   
     9     4     6 2   
    10     4    12 1   
    11     5    12 2   
    12     5    13 1   
    13     5    19 1   
    14     6    10 1   
    15     6    19 1   
    16     7    21 1   
    17     8     9 1   
    18     8    22 1   
    19     8    23 1   
    20     8    24 1   
    21     9    10 1   
    22     9    11 1   
    23     9    25 1   
    24    10    26 1   
    25    10    27 1   
    26    11    28 1   
    27    11    29 1   
    28    11    30 1   
    29    13    31 1   
    30    13    32 1   
    31    14    18 1   
    32    15    18 1   
    33    16    18 1   
@<TRIPOS>SUBSTRUCTURE
     1 94D         1 TEMP              0 ****  ****    0 ROOT
