@<TRIPOS>MOLECULE
94E
   28    29     1     0     0
SMALL
No Charge or Current Charge


@<TRIPOS>ATOM
      1 C1           0.3650    -1.1610     0.8840 c5         1 94E       0.163300
      2 C3          -1.8460    -1.1450    -0.4060 c6         1 94E       0.089300
      3 C6           0.2110     0.3750     1.1570 c5         1 94E       0.158300
      4 C2          -0.9610    -1.9190     0.6080 c6         1 94E       0.175300
      5 C4          -2.1380     0.2930     0.1180 c6         1 94E       0.181300
      6 C5          -0.8170     1.1200     0.2390 c6         1 94E      -0.088700
      7 C7          -1.0360     2.5780     0.7540 c3         1 94E       0.182600
      8 O6           1.5330     0.8760     0.8610 os         1 94E      -0.556700
      9 O1           1.2550    -1.2090    -0.2480 os         1 94E      -0.539700
     10 O7          -1.5120     3.4700    -0.2630 oh         1 94E      -0.636000
     11 O4          -3.0740     0.8860    -0.7840 oh         1 94E      -0.685000
     12 O3          -3.0860    -1.8500    -0.6310 oh         1 94E      -0.673000
     13 O2          -0.6900    -3.2490     0.1290 oh         1 94E      -0.690000
     14 S14          2.3800    -0.0190    -0.2260 s6         1 94E       1.508400
     15 O15          3.6100    -0.5140     0.4040 o          1 94E      -0.524000
     16 O16          2.3970     0.6640    -1.5250 o          1 94E      -0.524000
     17 H1           0.8640    -1.6390     1.7400 h1         1 94E       0.096700
     18 H2          -1.2880    -1.0620    -1.3520 h1         1 94E       0.080700
     19 H3          -0.0360     0.5670     2.2120 h1         1 94E       0.106700
     20 H4          -1.5150    -1.9800     1.5570 h1         1 94E       0.047700
     21 H5          -2.5930     0.2130     1.1170 h1         1 94E       0.034700
     22 H6          -0.3830     1.2140    -0.7660 hc         1 94E       0.101700
     23 H7          -1.7330     2.5530     1.6030 h1         1 94E       0.024700
     24 H8          -0.0790     2.9590     1.1360 h1         1 94E       0.024700
     25 H9          -1.6690     4.3380     0.1690 ho         1 94E       0.446000
     26 H10         -3.6190     0.1150    -1.0790 ho         1 94E       0.517000
     27 H11         -2.8510    -2.8080    -0.6120 ho         1 94E       0.462000
     28 H12          0.1380    -3.1700    -0.4050 ho         1 94E       0.518000
@<TRIPOS>BOND
     1     1     3 1   
     2     1     4 1   
     3     1     9 1   
     4     1    17 1   
     5     2     4 1   
     6     2     5 1   
     7     2    12 1   
     8     2    18 1   
     9     3     6 1   
    10     3     8 1   
    11     3    19 1   
    12     4    13 1   
    13     4    20 1   
    14     5     6 1   
    15     5    11 1   
    16     5    21 1   
    17     6     7 1   
    18     6    22 1   
    19     7    10 1   
    20     7    23 1   
    21     7    24 1   
    22     8    14 1   
    23     9    14 1   
    24    10    25 1   
    25    11    26 1   
    26    12    27 1   
    27    13    28 1   
    28    14    15 2   
    29    14    16 2   
@<TRIPOS>SUBSTRUCTURE
     1 94E         1 TEMP              0 ****  ****    0 ROOT
