@<TRIPOS>MOLECULE
94E
   28    29     1     0     0
SMALL
bcc


@<TRIPOS>ATOM
      1 C1           0.5280    -1.0560     0.8090 c5         1 94E       0.140100
      2 C3          -1.7220    -1.2180    -0.3020 c6         1 94E       0.066100
      3 C6           0.2760     0.4290     1.0580 c5         1 94E       0.135100
      4 C2          -0.7240    -1.8820     0.6380 c6         1 94E       0.152100
      5 C4          -2.0660     0.1760     0.2220 c6         1 94E       0.158100
      6 C5          -0.8260     1.0690     0.2080 c6         1 94E      -0.088700
      7 C7          -1.0780     2.4840     0.7270 c3         1 94E       0.159400
      8 O6           1.5590     1.0180     0.7410 os         1 94E      -0.533500
      9 O1           1.3010    -1.0540    -0.4130 os         1 94E      -0.516500
     10 O7          -1.7070     3.2600    -0.2610 oh         1 94E      -0.573800
     11 O4          -3.0640     0.7710    -0.5600 oh         1 94E      -0.562800
     12 O3          -2.9100    -1.9820    -0.3360 oh         1 94E      -0.610800
     13 O2          -0.3390    -3.1620     0.2210 oh         1 94E      -0.567800
     14 S14          2.2970     0.1980    -0.4250 s6         1 94E       1.650000
     15 O15          3.6020    -0.1710     0.0490 o          1 94E      -0.594800
     16 O16          2.1650     0.8620    -1.6920 o          1 94E      -0.594800
     17 H1           1.1430    -1.4780     1.6100 h1         1 94E       0.096700
     18 H2          -1.2920    -1.1270    -1.3080 h1         1 94E       0.080700
     19 H3           0.1110     0.6100     2.1210 h1         1 94E       0.106700
     20 H4          -1.1830    -1.9100     1.6390 h1         1 94E       0.047700
     21 H5          -2.4060     0.0690     1.2680 h1         1 94E       0.034700
     22 H6          -0.4780     1.1450    -0.8300 hc         1 94E       0.101700
     23 H7          -1.6780     2.4210     1.6470 h1         1 94E       0.024700
     24 H8          -0.1170     2.9310     1.0120 h1         1 94E       0.024700
     25 H9          -1.7250     4.1690     0.0510 ho         1 94E       0.407000
     26 H10         -3.7810     0.1300    -0.6340 ho         1 94E       0.418000
     27 H11         -2.9580    -2.4600    -1.1680 ho         1 94E       0.423000
     28 H12         -1.1000    -3.7470     0.3000 ho         1 94E       0.419000
@<TRIPOS>BOND
     1     1     3 1   
     2     1     4 1   
     3     1     9 1   
     4     1    17 1   
     5     2     4 1   
     6     2     5 1   
     7     2    12 1   
     8     2    18 1   
     9     3     6 1   
    10     3     8 1   
    11     3    19 1   
    12     4    13 1   
    13     4    20 1   
    14     5     6 1   
    15     5    11 1   
    16     5    21 1   
    17     6     7 1   
    18     6    22 1   
    19     7    10 1   
    20     7    23 1   
    21     7    24 1   
    22     8    14 1   
    23     9    14 1   
    24    10    25 1   
    25    11    26 1   
    26    12    27 1   
    27    13    28 1   
    28    14    15 2   
    29    14    16 2   
@<TRIPOS>SUBSTRUCTURE
     1 94E         1 TEMP              0 ****  ****    0 ROOT
