@<TRIPOS>MOLECULE
94F
   51    54     1     0     0
SMALL
bcc


@<TRIPOS>ATOM
      1 C31          5.6570    -0.9050     1.6930 ca         1 94F      -0.099000
      2 C30          6.3090    -1.1300     0.4930 ca         1 94F      -0.125000
      3 C32          4.3340    -0.4880     1.6930 ca         1 94F      -0.108000
      4 C29          5.6400    -0.9380    -0.7070 ca         1 94F      -0.082000
      5 C19         -0.1350    -0.3700     0.7320 ca         1 94F      -0.103000
      6 C5          -0.8560     3.6190     1.0650 ca         1 94F       0.688900
      7 C18         -0.4370     1.0020     0.7000 ca         1 94F      -0.257600
      8 C23          3.6520    -0.2930     0.4990 cp         1 94F       0.012000
      9 C22          2.2360     0.1430     0.5600 cp         1 94F      -0.087000
     10 C24          4.3140    -0.5230    -0.7100 ca         1 94F      -0.169300
     11 C3           0.6010     1.9520     0.7090 ca         1 94F       0.393600
     12 C2           1.9230     1.4730     0.5990 ca         1 94F       0.126600
     13 C20          1.1690    -0.7760     0.6610 ca         1 94F       0.052400
     14 C7          -1.7680     1.5510     0.7540 ca         1 94F       0.722200
     15 C14         -8.8190    -1.1630    -0.5560 c3         1 94F      -0.077100
     16 C13         -7.5980    -0.6410     0.1810 c3         1 94F      -0.152400
     17 C12         -6.2980    -1.2380    -0.3280 c          1 94F       0.674100
     18 C9          -2.9770    -0.1600    -0.5310 c6         1 94F       0.189800
     19 C17         -4.1630     1.2700     1.0090 c6         1 94F       0.189800
     20 C10         -3.8620    -1.3350    -0.1590 c6         1 94F       0.089500
     21 C16         -5.0590     0.0960     1.3780 c6         1 94F       0.089500
     22 C25          3.5960    -0.3140    -2.0100 c3         1 94F       0.720200
     23 N4           0.3860     3.2770     0.8690 nb         1 94F      -0.694000
     24 N6          -1.9380     2.8310     1.0060 nb         1 94F      -0.792000
     25 N8          -2.8640     0.7640     0.5960 nh         1 94F      -0.774300
     26 N11         -5.1540    -0.8550     0.2890 n          1 94F      -0.488800
     27 O15         -6.2920    -2.0360    -1.2550 o          1 94F      -0.597100
     28 F1           2.9030     2.3710     0.5680 f          1 94F      -0.101900
     29 F26          4.3460    -0.6400    -3.0650 f          1 94F      -0.232633
     30 F27          2.4780    -1.0470    -2.0890 f          1 94F      -0.232633
     31 F28          3.2290     0.9650    -2.1770 f          1 94F      -0.232633
     32 CL           1.5360    -2.4590     0.7180 cl         1 94F      -0.079400
     33 H1           6.1730    -1.0540     2.6320 ha         1 94F       0.140000
     34 H2           7.3410    -1.4540     0.4830 ha         1 94F       0.141000
     35 H3           3.8210    -0.3150     2.6300 ha         1 94F       0.144000
     36 H4           6.1650    -1.1170    -1.6340 ha         1 94F       0.152000
     37 H5          -0.9150    -1.1080     0.8520 ha         1 94F       0.160000
     38 H6          -1.0530     4.6660     1.2680 h5         1 94F       0.053100
     39 H7          -8.7770    -0.9360    -1.6210 hc         1 94F       0.043367
     40 H8          -8.9280    -2.2410    -0.4460 hc         1 94F       0.043367
     41 H9          -9.7160    -0.6960    -0.1520 hc         1 94F       0.043367
     42 H10         -7.5510     0.4480     0.0960 hc         1 94F       0.055700
     43 H11         -7.6970    -0.8490     1.2500 hc         1 94F       0.055700
     44 H12         -2.0040    -0.5140    -0.8560 h1         1 94F       0.062700
     45 H13         -3.4220     0.3730    -1.3800 h1         1 94F       0.062700
     46 H14         -4.6280     1.8630     0.2130 h1         1 94F       0.062700
     47 H15         -4.0470     1.9130     1.8780 h1         1 94F       0.062700
     48 H16         -3.9890    -1.9860    -1.0180 h1         1 94F       0.064200
     49 H17         -3.3900    -1.9180     0.6390 h1         1 94F       0.064200
     50 H18         -4.6470    -0.4060     2.2590 h1         1 94F       0.064200
     51 H19         -6.0380     0.4770     1.6540 h1         1 94F       0.064200
@<TRIPOS>BOND
     1     1     2 ar  
     2     1     3 ar  
     3     1    33 1   
     4     2     4 ar  
     5     2    34 1   
     6     3     8 ar  
     7     3    35 1   
     8     4    10 ar  
     9     4    36 1   
    10     5     7 ar  
    11     5    13 ar  
    12     5    37 1   
    13     6    23 ar  
    14     6    24 ar  
    15     6    38 1   
    16     7    11 ar  
    17     7    14 ar  
    18     8     9 1   
    19     8    10 ar  
    20     9    12 ar  
    21     9    13 ar  
    22    10    22 1   
    23    11    12 ar  
    24    11    23 ar  
    25    12    28 1   
    26    13    32 1   
    27    14    24 ar  
    28    14    25 1   
    29    15    16 1   
    30    15    39 1   
    31    15    40 1   
    32    15    41 1   
    33    16    17 1   
    34    16    42 1   
    35    16    43 1   
    36    17    26 1   
    37    17    27 2   
    38    18    20 1   
    39    18    25 1   
    40    18    44 1   
    41    18    45 1   
    42    19    21 1   
    43    19    25 1   
    44    19    46 1   
    45    19    47 1   
    46    20    26 1   
    47    20    48 1   
    48    20    49 1   
    49    21    26 1   
    50    21    50 1   
    51    21    51 1   
    52    22    29 1   
    53    22    30 1   
    54    22    31 1   
@<TRIPOS>SUBSTRUCTURE
     1 94F         1 TEMP              0 ****  ****    0 ROOT
