@<TRIPOS>MOLECULE
94F
   51    54     1     0     0
SMALL
No Charge or Current Charge


@<TRIPOS>ATOM
      1 C31          5.6910    -0.8750     1.9890 ca         1 94F      -0.081000
      2 C30          6.4380    -1.0920     0.8230 ca         1 94F      -0.107000
      3 C32          4.3550    -0.4620     1.8900 ca         1 94F      -0.090000
      4 C29          5.8500    -0.8980    -0.4380 ca         1 94F      -0.064000
      5 C19         -0.0740    -0.3390     0.5970 ca         1 94F      -0.085000
      6 C5          -0.9560     3.6580     0.4290 ca         1 94F       0.162900
      7 C18         -0.3910     1.0340     0.5170 ca         1 94F      -0.127000
      8 C23          3.7420    -0.2600     0.6320 cp         1 94F       0.012000
      9 C22          2.3180     0.1810     0.5940 cp         1 94F      -0.087000
     10 C24          4.5010    -0.4830    -0.5550 ca         1 94F      -0.169300
     11 C3           0.6480     1.9980     0.5020 ca         1 94F       0.000000
     12 C2           1.9890     1.5570     0.5410 ca         1 94F       0.227000
     13 C20          1.2630    -0.7600     0.6360 ca         1 94F       0.144000
     14 C7          -1.7290     1.5020     0.4710 ca         1 94F       0.393900
     15 C14         -9.1440    -0.9070    -0.2370 c3         1 94F      -0.077100
     16 C13         -7.7720    -0.6580     0.4300 c3         1 94F      -0.152400
     17 C12         -6.5340    -1.0470    -0.4060 c          1 94F       0.607100
     18 C9          -3.1290    -0.1310    -0.8080 c6         1 94F       0.189800
     19 C17         -4.0730     0.9690     1.2230 c6         1 94F       0.189800
     20 C10         -4.0160    -1.3760    -0.5310 c6         1 94F       0.089500
     21 C16         -4.9540    -0.2870     1.4770 c6         1 94F       0.089500
     22 C25          3.8800    -0.2810    -1.9500 c3         1 94F       0.356300
     23 N4           0.3470     3.3160     0.4560 nb         1 94F      -0.168000
     24 N6          -2.0080     2.8180     0.4350 nb         1 94F      -0.266000
     25 N8          -2.8390     0.6290     0.4470 nh         1 94F      -0.774300
     26 N11         -5.2580    -1.0080     0.2050 n          1 94F      -0.421800
     27 O15         -6.6540    -1.4160    -1.5680 o          1 94F      -0.597100
     28 F1           2.9880     2.4740     0.5310 f          1 94F      -0.137000
     29 F26          4.7260    -0.5890    -2.9600 f          1 94F      -0.111333
     30 F27          2.7820    -1.0490    -2.1290 f          1 94F      -0.111333
     31 F28          3.5020     1.0020    -2.1490 f          1 94F      -0.111333
     32 Cl           1.5930    -2.4880     0.7400 cl         1 94F      -0.171000
     33 H1           6.1460    -1.0250     2.9660 ha         1 94F       0.122000
     34 H2           7.4750    -1.4110     0.8950 ha         1 94F       0.123000
     35 H3           3.7810    -0.2950     2.7990 ha         1 94F       0.126000
     36 H4           6.4590    -1.0750    -1.3220 ha         1 94F       0.134000
     37 H5          -0.8600    -1.0890     0.6410 ha         1 94F       0.142000
     38 H6          -1.1810     4.7230     0.3970 h5         1 94F       0.053100
     39 H7          -9.2360    -0.3310    -1.1660 hc         1 94F       0.043367
     40 H8          -9.2730    -1.9710    -0.4730 hc         1 94F       0.043367
     41 H9          -9.9560    -0.6050     0.4340 hc         1 94F       0.043367
     42 H10         -7.6630     0.3940     0.7190 hc         1 94F       0.055700
     43 H11         -7.7020    -1.1620     1.4010 hc         1 94F       0.055700
     44 H12         -2.1970    -0.4620    -1.2890 h1         1 94F       0.062700
     45 H13         -3.6500     0.5210    -1.5260 h1         1 94F       0.062700
     46 H14         -4.6680     1.7160     0.6780 h1         1 94F       0.062700
     47 H15         -3.8040     1.4080     2.1960 h1         1 94F       0.062700
     48 H16         -4.2480    -1.8760    -1.4810 h1         1 94F       0.064200
     49 H17         -3.4440    -2.0920     0.0760 h1         1 94F       0.064200
     50 H18         -4.4100    -0.9690     2.1440 h1         1 94F       0.064200
     51 H19         -5.8630     0.0170     2.0100 h1         1 94F       0.064200
@<TRIPOS>BOND
     1     1     2 ar  
     2     1     3 ar  
     3     1    33 1   
     4     2     4 ar  
     5     2    34 1   
     6     3     8 ar  
     7     3    35 1   
     8     4    10 ar  
     9     4    36 1   
    10     5     7 ar  
    11     5    13 ar  
    12     5    37 1   
    13     6    23 ar  
    14     6    24 ar  
    15     6    38 1   
    16     7    11 ar  
    17     7    14 ar  
    18     8     9 1   
    19     8    10 ar  
    20     9    12 ar  
    21     9    13 ar  
    22    10    22 1   
    23    11    12 ar  
    24    11    23 ar  
    25    12    28 1   
    26    13    32 1   
    27    14    24 ar  
    28    14    25 1   
    29    15    16 1   
    30    15    39 1   
    31    15    40 1   
    32    15    41 1   
    33    16    17 1   
    34    16    42 1   
    35    16    43 1   
    36    17    26 1   
    37    17    27 2   
    38    18    20 1   
    39    18    25 1   
    40    18    44 1   
    41    18    45 1   
    42    19    21 1   
    43    19    25 1   
    44    19    46 1   
    45    19    47 1   
    46    20    26 1   
    47    20    48 1   
    48    20    49 1   
    49    21    26 1   
    50    21    50 1   
    51    21    51 1   
    52    22    29 1   
    53    22    30 1   
    54    22    31 1   
@<TRIPOS>SUBSTRUCTURE
     1 94F         1 TEMP              0 ****  ****    0 ROOT
