@<TRIPOS>MOLECULE
94G
   30    31     1     0     0
SMALL
abcg2


@<TRIPOS>ATOM
      1 C5          -1.9920     0.2840     0.2450 ca         1 94G       0.497900
      2 C6           3.5380     0.6670    -0.0100 ca         1 94G      -0.297500
      3 C9          -3.1490     0.3370    -0.5440 ca         1 94G      -0.195000
      4 C3           0.3380     1.1140     0.3750 c          1 94G       0.689100
      5 C15         -2.9700    -1.1260     1.7260 ca         1 94G       0.379900
      6 C14         -4.2370    -0.3970    -0.1240 ca         1 94G       0.043100
      7 C13          3.8390     0.1770    -1.2750 ca         1 94G       0.007500
      8 C12          3.8570    -0.0440     1.1360 ca         1 94G       0.007500
      9 C16          4.7840    -1.7620    -0.2460 ca         1 94G       0.173000
     10 C17         -4.1670    -1.1560     1.0370 ca         1 94G      -0.173000
     11 C18          4.4630    -1.0520    -1.3950 ca         1 94G      -0.127500
     12 C19          4.4890    -1.2710     1.0170 ca         1 94G      -0.127500
     13 N10         -1.9040    -0.4280     1.3510 nb         1 94G      -0.668000
     14 N2           1.1740     1.9570    -0.3410 ns         1 94G      -0.608300
     15 N4          -0.9050     1.0320    -0.1880 ns         1 94G      -0.328900
     16 O11          0.7210     0.5420     1.3670 o          1 94G      -0.541100
     17 O7           2.7910     2.6810     1.4940 o          1 94G      -0.523500
     18 O8           3.2600     3.1080    -0.9320 o          1 94G      -0.523500
     19 S1           2.7550     2.2420     0.1170 sy         1 94G       1.201300
     20 BR20        -5.8210    -0.3700    -1.1330 br         1 94G      -0.073100
     21 CL21         5.5680    -3.2910    -0.3940 cl         1 94G      -0.185000
     22 H1          -3.1770     0.9350    -1.4460 ha         1 94G       0.136000
     23 H2          -2.8660    -1.7020     2.6390 h4         1 94G       0.031100
     24 H3           3.5960     0.7350    -2.1700 ha         1 94G       0.143000
     25 H4           3.6240     0.3420     2.1180 ha         1 94G       0.143000
     26 H5          -4.9970    -1.7470     1.3970 ha         1 94G       0.145000
     27 H6           4.6990    -1.4460    -2.3730 ha         1 94G       0.136500
     28 H7           4.7460    -1.8350     1.9030 ha         1 94G       0.136500
     29 H8           0.8970     2.3760    -1.2210 hn         1 94G       0.341500
     30 H9          -1.0670     1.5730    -1.0250 hn         1 94G       0.159000
@<TRIPOS>BOND
     1     1     3 ar  
     2     1    13 ar  
     3     1    15 1   
     4     2     7 ar  
     5     2     8 ar  
     6     2    19 1   
     7     3     6 ar  
     8     3    22 1   
     9     4    14 1   
    10     4    15 1   
    11     4    16 2   
    12     5    10 ar  
    13     5    13 ar  
    14     5    23 1   
    15     6    10 ar  
    16     6    20 1   
    17     7    11 ar  
    18     7    24 1   
    19     8    12 ar  
    20     8    25 1   
    21     9    11 ar  
    22     9    12 ar  
    23     9    21 1   
    24    10    26 1   
    25    11    27 1   
    26    12    28 1   
    27    14    19 1   
    28    14    29 1   
    29    15    30 1   
    30    17    19 2   
    31    18    19 2   
@<TRIPOS>SUBSTRUCTURE
     1 94G         1 TEMP              0 ****  ****    0 ROOT
