@<TRIPOS>MOLECULE
94G
   30    31     1     0     0
SMALL
No Charge or Current Charge


@<TRIPOS>ATOM
      1 C5          -2.0630     0.3290     0.3130 ca         1 94G       0.497900
      2 C6           3.6050     0.6640    -0.0420 ca         1 94G      -0.297500
      3 C9          -2.9800    -0.0850    -0.6640 ca         1 94G      -0.195000
      4 C3           0.3320     1.0550     0.5260 c          1 94G       0.689100
      5 C15         -3.4010    -0.4650     2.0240 ca         1 94G       0.379900
      6 C14         -4.1490    -0.7410    -0.2560 ca         1 94G       0.043100
      7 C13          4.0110     0.3280    -1.3520 ca         1 94G       0.007500
      8 C12          3.8510    -0.2310     1.0210 ca         1 94G       0.007500
      9 C16          4.9070    -1.7810    -0.5300 ca         1 94G       0.173000
     10 C17         -4.3600    -0.9380     1.1150 ca         1 94G      -0.173000
     11 C18          4.6620    -0.8950    -1.5900 ca         1 94G      -0.127500
     12 C19          4.5020    -1.4510     0.7730 ca         1 94G      -0.127500
     13 N10         -2.2710     0.1700     1.6370 nb         1 94G      -0.668000
     14 N2           1.1580     1.9270    -0.0950 ns         1 94G      -0.608300
     15 N4          -0.9150     1.0460    -0.0440 ns         1 94G      -0.328900
     16 O11          0.6750     0.3490     1.4590 o          1 94G      -0.541100
     17 O7           2.8190     2.5290     1.6960 o          1 94G      -0.523500
     18 O8           3.1940     3.2040    -0.7450 o          1 94G      -0.523500
     19 S1           2.7610     2.2290     0.2610 sy         1 94G       1.201300
     20 Br20        -5.4290    -1.3450    -1.5410 br         1 94G      -0.073100
     21 Cl21         5.7210    -3.3100    -0.8350 cl         1 94G      -0.185000
     22 H1          -2.7820     0.0980    -1.7160 ha         1 94G       0.136000
     23 H2          -3.5430    -0.5930     3.0970 h4         1 94G       0.031100
     24 H3           3.8250     1.0050    -2.1850 ha         1 94G       0.143000
     25 H4           3.5380     0.0090     2.0370 ha         1 94G       0.143000
     26 H5          -5.2520    -1.4400     1.4770 ha         1 94G       0.145000
     27 H6           4.9760    -1.1560    -2.5980 ha         1 94G       0.136500
     28 H7           4.6920    -2.1420     1.5900 ha         1 94G       0.136500
     29 H8           0.8370     2.4720    -0.8750 hn         1 94G       0.341500
     30 H9          -1.0310     1.6360    -0.8550 hn         1 94G       0.159000
@<TRIPOS>BOND
     1     1     3 ar  
     2     1    13 ar  
     3     1    15 1   
     4     2     7 ar  
     5     2     8 ar  
     6     2    19 1   
     7     3     6 ar  
     8     3    22 1   
     9     4    14 1   
    10     4    15 1   
    11     4    16 2   
    12     5    10 ar  
    13     5    13 ar  
    14     5    23 1   
    15     6    10 ar  
    16     6    20 1   
    17     7    11 ar  
    18     7    24 1   
    19     8    12 ar  
    20     8    25 1   
    21     9    11 ar  
    22     9    12 ar  
    23     9    21 1   
    24    10    26 1   
    25    11    27 1   
    26    12    28 1   
    27    14    19 1   
    28    14    29 1   
    29    15    30 1   
    30    17    19 2   
    31    18    19 2   
@<TRIPOS>SUBSTRUCTURE
     1 94G         1 TEMP              0 ****  ****    0 ROOT
