@<TRIPOS>MOLECULE
94H
   44    47     1     0     0
SMALL
abcg2


@<TRIPOS>ATOM
      1 C1           5.8370    -1.9500    -1.7350 ca         1 94H      -0.106000
      2 C2           4.8760    -2.2390    -0.7750 ca         1 94H      -0.109500
      3 C3           6.1690    -0.6270    -1.9960 ca         1 94H      -0.109500
      4 C4          -6.0480    -1.8490     1.1110 ca         1 94H      -0.195000
      5 C5          -4.8010    -1.2510     1.0540 ca         1 94H      -0.028000
      6 C6           4.2510    -1.2120    -0.0810 ca         1 94H      -0.096000
      7 C7           5.5410     0.3970    -1.3010 ca         1 94H      -0.096000
      8 C8          -0.8450     0.6890    -0.6010 cc         1 94H      -0.060000
      9 C9          -6.9200    -1.7510     0.0210 ca         1 94H       0.356900
     10 C10         -3.6560     0.5580    -1.8730 cd         1 94H      -0.129100
     11 C11         -1.9060     0.5030     1.4370 cd         1 94H      -0.228000
     12 C12         -4.4660    -0.5610    -0.1090 ca         1 94H      -0.120800
     13 C13         -2.0720     0.4390     0.0780 cc         1 94H      -0.031800
     14 C14         -3.3290     0.1630    -0.6000 cc         1 94H      -0.070400
     15 C15          4.5760     0.1170    -0.3380 ca         1 94H      -0.103300
     16 C16          0.2030     0.9210     0.2390 cd         1 94H      -0.289600
     17 C17         -5.4340    -0.5530    -1.1410 ca         1 94H       0.365500
     18 C19          4.7050     1.4830     1.7540 c3         1 94H       0.141800
     19 C20          3.9510     1.2490     0.4460 c3         1 94H       0.158000
     20 N21         -6.6300    -1.1170    -1.1060 nb         1 94H      -0.680000
     21 N22         -4.9100     0.1330    -2.1930 na         1 94H      -0.320400
     22 N23          2.5500     1.0260     0.7380 ns         1 94H      -0.501900
     23 N24          4.2500     2.6960     2.4090 n8         1 94H      -0.993200
     24 O25          1.8260     1.5660    -1.3330 o          1 94H      -0.581100
     25 S26         -0.2970     0.8560     1.8860 ss         1 94H       0.205000
     26 H1           6.3220    -2.7510    -2.2800 ha         1 94H       0.112000
     27 H2           4.6100    -3.2680    -0.5670 ha         1 94H       0.112500
     28 H3           6.9130    -0.3930    -2.7470 ha         1 94H       0.112500
     29 H5          -4.1160    -1.3330     1.8880 ha         1 94H       0.119000
     30 H6           3.4990    -1.4540     0.6600 ha         1 94H       0.110500
     31 H7           5.8020     1.4280    -1.5130 ha         1 94H       0.110500
     32 H8          -0.7390     0.6710    -1.6770 ha         1 94H       0.151000
     33 H9          -7.8960    -2.2190     0.0720 h4         1 94H       0.019100
     34 H10         -3.0790     1.1330    -2.5790 h4         1 94H       0.222000
     35 H11         -2.6570     0.4000     2.2050 h4         1 94H       0.153000
     36 H12          4.6300     0.5750     2.3720 h1         1 94H       0.037200
     37 H13          5.7620     1.5980     1.5070 h1         1 94H       0.037200
     38 H14          4.0240     2.1650    -0.1450 h1         1 94H       0.097700
     39 H15         -5.3760     0.3070    -3.0680 hn         1 94H       0.364000
     40 H16          2.3270     0.5250     1.5850 hn         1 94H       0.306500
     41 H17          3.3230     2.5610     2.7910 hn         1 94H       0.396000
     42 H18          4.8460     2.8890     3.2040 hn         1 94H       0.396000
     43 C18          1.5900     1.1970    -0.1940 c          1 94H       0.644700
     44 H4          -6.3580    -2.3970     1.9890 ha         1 94H       0.122000
@<TRIPOS>BOND
     1     1     2 ar  
     2     1     3 ar  
     3     1    26 1   
     4     2     6 ar  
     5     2    27 1   
     6     3     7 ar  
     7     3    28 1   
     8     4     5 ar  
     9     4     9 ar  
    10     4    44 1   
    11     5    12 ar  
    12     5    29 1   
    13     6    15 ar  
    14     6    30 1   
    15     7    15 ar  
    16     7    31 1   
    17     8    13 1   
    18     8    16 2   
    19     8    32 1   
    20     9    20 ar  
    21     9    33 1   
    22    10    14 2   
    23    10    21 1   
    24    10    34 1   
    25    11    13 2   
    26    11    25 1   
    27    11    35 1   
    28    12    14 1   
    29    12    17 ar  
    30    13    14 1   
    31    15    19 1   
    32    16    25 1   
    33    16    43 1   
    34    17    20 ar  
    35    17    21 1   
    36    18    19 1   
    37    18    23 1   
    38    18    36 1   
    39    18    37 1   
    40    19    22 1   
    41    19    38 1   
    42    21    39 1   
    43    22    40 1   
    44    22    43 1   
    45    23    41 1   
    46    23    42 1   
    47    24    43 2   
@<TRIPOS>SUBSTRUCTURE
     1 94H         1 TEMP              0 ****  ****    0 ROOT
