@<TRIPOS>MOLECULE
94H
   44    47     1     0     0
SMALL
No Charge or Current Charge


@<TRIPOS>ATOM
      1 C1           6.5750    -2.1630    -1.0120 ca         1 94H      -0.106000
      2 C2           6.0240    -2.1110     0.2790 ca         1 94H      -0.109500
      3 C3           6.2790    -1.1500    -1.9390 ca         1 94H      -0.109500
      4 C4          -6.2940    -2.0090     0.8100 ca         1 94H      -0.195000
      5 C5          -4.9540    -1.5930     0.7150 ca         1 94H      -0.028000
      6 C6           5.1800    -1.0480     0.6440 ca         1 94H      -0.096000
      7 C7           5.4350    -0.0860    -1.5760 ca         1 94H      -0.096000
      8 C8          -1.0080     0.8380    -0.4980 cc         1 94H      -0.060000
      9 C9          -7.2870    -1.3080     0.1010 ca         1 94H       0.356900
     10 C10         -3.8320     1.2500    -1.2920 cd         1 94H      -0.129100
     11 C11         -1.6500    -0.9820     0.7990 cd         1 94H      -0.228000
     12 C12         -4.6930    -0.4780    -0.1020 ca         1 94H      -0.120800
     13 C13         -2.0800     0.0160    -0.0430 cc         1 94H      -0.031800
     14 C14         -3.4630     0.2190    -0.4340 cc         1 94H      -0.070400
     15 C15          4.8830    -0.0230    -0.2800 ca         1 94H      -0.103300
     16 C16          0.2240     0.4780    -0.0130 cd         1 94H      -0.289600
     17 C17         -5.7290     0.1550    -0.7650 ca         1 94H       0.365500
     18 C19          4.4550     1.8870     1.3730 c3         1 94H       0.141800
     19 C20          3.9610     1.1360     0.1000 c3         1 94H       0.158000
     20 N21         -7.0150    -0.2360    -0.6810 nb         1 94H      -0.680000
     21 N22         -5.2300     1.2090    -1.4950 na         1 94H      -0.320400
     22 N23          2.5870     0.6420     0.2520 ns         1 94H      -0.501900
     23 N24          3.6750     3.1120     1.6860 n8         1 94H      -0.993200
     24 O25          1.5300     2.1530    -1.0960 o          1 94H      -0.581100
     25 S26          0.1030    -0.9280     1.0530 ss         1 94H       0.205000
     26 H1           7.2270    -2.9860    -1.2930 ha         1 94H       0.112000
     27 H2           6.2490    -2.8970     0.9970 ha         1 94H       0.112500
     28 H3           6.7020    -1.1900    -2.9400 ha         1 94H       0.112500
     29 H5          -4.1880    -2.1290     1.2580 ha         1 94H       0.119000
     30 H6           4.7570    -1.0260     1.6460 ha         1 94H       0.110500
     31 H7           5.2120     0.6900    -2.3050 ha         1 94H       0.110500
     32 H8          -1.1510     1.6770    -1.1710 ha         1 94H       0.151000
     33 H9          -8.3310    -1.6130     0.1610 h4         1 94H       0.019100
     34 H10         -3.2200     2.0080    -1.7730 h4         1 94H       0.222000
     35 H11         -2.2060    -1.7540     1.3020 h4         1 94H       0.153000
     36 H12          4.3990     1.2130     2.2390 h1         1 94H       0.037200
     37 H13          5.5060     2.1740     1.2350 h1         1 94H       0.037200
     38 H14          3.9830     1.8620    -0.7240 h1         1 94H       0.097700
     39 H15         -5.7830     1.8330    -2.0700 hn         1 94H       0.364000
     40 H16          2.4340    -0.1700     0.8340 hn         1 94H       0.306500
     41 H17          2.6950     2.8480     1.8420 hn         1 94H       0.396000
     42 H18          3.9760     3.4800     2.5970 hn         1 94H       0.396000
     43 C18          1.4780     1.1850    -0.3510 c          1 94H       0.644700
     44 H4          -6.5660    -2.8630     1.4240 ha         1 94H       0.122000
@<TRIPOS>BOND
     1     1     2 ar  
     2     1     3 ar  
     3     1    26 1   
     4     2     6 ar  
     5     2    27 1   
     6     3     7 ar  
     7     3    28 1   
     8     4     5 ar  
     9     4     9 ar  
    10     4    44 1   
    11     5    12 ar  
    12     5    29 1   
    13     6    15 ar  
    14     6    30 1   
    15     7    15 ar  
    16     7    31 1   
    17     8    13 1   
    18     8    16 2   
    19     8    32 1   
    20     9    20 ar  
    21     9    33 1   
    22    10    14 2   
    23    10    21 1   
    24    10    34 1   
    25    11    13 2   
    26    11    25 1   
    27    11    35 1   
    28    12    14 1   
    29    12    17 ar  
    30    13    14 1   
    31    15    19 1   
    32    16    25 1   
    33    16    43 1   
    34    17    20 ar  
    35    17    21 1   
    36    18    19 1   
    37    18    23 1   
    38    18    36 1   
    39    18    37 1   
    40    19    22 1   
    41    19    38 1   
    42    21    39 1   
    43    22    40 1   
    44    22    43 1   
    45    23    41 1   
    46    23    42 1   
    47    24    43 2   
@<TRIPOS>SUBSTRUCTURE
     1 94H         1 TEMP              0 ****  ****    0 ROOT
