@<TRIPOS>MOLECULE
94I
   47    49     1     0     0
SMALL
No Charge or Current Charge


@<TRIPOS>ATOM
      1 C5          -0.0430    -0.2280    -0.0330 cp         1 94I       0.222500
      2 C3          -0.3870    -2.7120    -0.4940 ca         1 94I       0.114400
      3 C2          -2.1500    -3.8280     0.4600 ca         1 94I       0.110900
      4 C7           1.3450     2.0710    -0.2630 ca         1 94I       0.697900
      5 C14         -2.6820     0.7770    -1.6320 c3         1 94I       0.224300
      6 C13         -4.0280     0.0380    -1.4720 c3         1 94I      -0.090900
      7 C12         -5.1360     0.8020    -0.7030 c3         1 94I      -0.069400
      8 C9          -2.7590     2.4220     0.2490 c3         1 94I       0.224300
      9 C10         -3.8750     2.0430     1.2470 c3         1 94I      -0.090900
     10 C16          5.3490    -0.9030     0.1000 c2         1 94I       0.658800
     11 N4           0.0270     2.2160    -0.3270 nb         1 94I      -0.855000
     12 N6           4.0510    -0.4990     0.0920 ns         1 94I      -0.433400
     13 N8           5.4480    -1.9900     0.8730 nv         1 94I      -1.079200
     14 O1           4.2580     1.7430    -0.2790 o          1 94I      -0.582100
     15 N7           6.2520    -0.5170    -0.6820 n2         1 94I      -0.823100
     16 C6           2.0240     0.8200    -0.1210 ca         1 94I       0.084500
     17 N3           1.3120    -0.3500    -0.0070 nb         1 94I      -0.593000
     18 N9           1.8780     3.2910    -0.3750 nv         1 94I      -1.053900
     19 C8          -0.6830     1.0690    -0.2020 ca         1 94I       0.690900
     20 C4          -0.7950    -1.5090     0.1340 cp         1 94I      -0.211500
     21 N2          -1.0630    -3.8680    -0.3380 nb         1 94I      -0.174500
     22 N1          -2.6230    -2.7510     1.1210 nb         1 94I      -0.174500
     23 C1          -1.9430    -1.5990     0.9570 ca         1 94I       0.114400
     24 N5          -2.0710     1.2690    -0.3790 nh         1 94I      -0.771300
     25 C11         -4.8660     0.9290     0.8150 c3         1 94I      -0.069400
     26 H1           0.4880    -2.7460    -1.1410 h4         1 94I       0.032600
     27 H2          -2.6980    -4.7600     0.5880 h5         1 94I       0.050100
     28 H3          -1.9870     0.0940    -2.1410 h1         1 94I       0.054950
     29 H4          -2.8330     1.6250    -2.3150 h1         1 94I       0.054950
     30 H5          -4.4020    -0.1970    -2.4750 hc         1 94I       0.049200
     31 H6          -5.2960     1.7920    -1.1460 hc         1 94I       0.040950
     32 H7          -3.1970     3.0540    -0.5360 h1         1 94I       0.054950
     33 H8          -2.0490     3.0620     0.7890 h1         1 94I       0.054950
     34 H9          -3.4100     1.7400     2.1930 hc         1 94I       0.049200
     35 H10         -4.4440     2.9540     1.4680 hc         1 94I       0.049200
     36 H11          3.3590    -1.2160     0.2360 hn         1 94I       0.348500
     37 H12          4.8650    -1.9560     1.7030 hn         1 94I       0.457000
     38 H13          6.3960    -2.2970     1.0570 hn         1 94I       0.457000
     39 H14          7.0830    -1.1000    -0.5310 hn         1 94I       0.379400
     40 H15          1.2500     3.9720    -0.7790 hn         1 94I       0.516000
     41 H16          2.8570     3.3380    -0.6410 hn         1 94I       0.516000
     42 H17         -2.3120    -0.7350     1.5060 h4         1 94I       0.032600
     43 H18         -5.8190     1.1100     1.3260 hc         1 94I       0.040950
     44 H19         -4.5100    -0.0370     1.1920 hc         1 94I       0.040950
     45 H20         -3.8510    -0.9270    -0.9840 hc         1 94I       0.049200
     46 H21         -6.0750     0.2500    -0.8340 hc         1 94I       0.040950
     47 C15          3.5420     0.7600    -0.1160 c          1 94I       0.557600
@<TRIPOS>BOND
     1     1    17 ar  
     2     1    19 ar  
     3     1    20 1   
     4     2    20 ar  
     5     2    21 ar  
     6     2    26 1   
     7     3    21 ar  
     8     3    22 ar  
     9     3    27 1   
    10     4    11 ar  
    11     4    16 ar  
    12     4    18 1   
    13     5     6 1   
    14     5    24 1   
    15     5    28 1   
    16     5    29 1   
    17     6     7 1   
    18     6    30 1   
    19     6    45 1   
    20     7    25 1   
    21     7    31 1   
    22     7    46 1   
    23     8     9 1   
    24     8    24 1   
    25     8    32 1   
    26     8    33 1   
    27     9    25 1   
    28     9    34 1   
    29     9    35 1   
    30    10    12 1   
    31    10    13 1   
    32    10    15 2   
    33    11    19 ar  
    34    12    36 1   
    35    12    47 1   
    36    13    37 1   
    37    13    38 1   
    38    14    47 2   
    39    15    39 1   
    40    16    17 ar  
    41    16    47 1   
    42    18    40 1   
    43    18    41 1   
    44    19    24 1   
    45    20    23 ar  
    46    22    23 ar  
    47    23    42 1   
    48    25    43 1   
    49    25    44 1   
@<TRIPOS>SUBSTRUCTURE
     1 94I         1 TEMP              0 ****  ****    0 ROOT
