@<TRIPOS>MOLECULE
94I
   47    49     1     0     0
SMALL
bcc


@<TRIPOS>ATOM
      1 C5          -0.1230    -0.1840    -0.2180 cp         1 94I       0.222500
      2 C3          -0.3120    -2.6020    -0.8390 ca         1 94I       0.442700
      3 C2          -1.7400    -3.9620     0.2550 ca         1 94I       0.636900
      4 C7           1.1850     2.1640     0.1380 ca         1 94I       0.697900
      5 C14         -2.8150     0.2670    -1.5330 c3         1 94I       0.224300
      6 C13         -4.1210    -0.2680    -0.9550 c3         1 94I      -0.090900
      7 C12         -5.0620     0.7490    -0.3070 c3         1 94I      -0.069400
      8 C9          -2.7570     2.5090    -0.5700 c3         1 94I       0.224300
      9 C10         -3.6050     2.6280     0.6890 c3         1 94I      -0.090900
     10 C16          5.1030    -0.9420     0.0910 c2         1 94I       0.658800
     11 N4          -0.1310     2.1860    -0.0480 nb         1 94I      -0.855000
     12 N6           3.7930    -0.4700     0.0440 ns         1 94I      -0.500400
     13 N8           5.1300    -2.2940     0.3340 nv         1 94I      -0.968800
     14 O1           4.0800     1.7920     0.2470 o          1 94I      -0.582100
     15 N7           6.0970    -0.1850    -0.1450 n2         1 94I      -0.823100
     16 C6           1.8860     0.9360     0.0180 ca         1 94I       0.084500
     17 N3           1.1820    -0.1800    -0.1050 nb         1 94I      -0.593000
     18 N9           1.7740     3.3250     0.4460 nv         1 94I      -0.943500
     19 C8          -0.8050     1.0770    -0.3180 ca         1 94I       0.690900
     20 C4          -0.7570    -1.5080    -0.1030 cp         1 94I      -0.342100
     21 N2          -0.8000    -3.8210    -0.6690 nb         1 94I      -0.700500
     22 N1          -2.2270    -3.0040     1.0270 nb         1 94I      -0.700500
     23 C1          -1.7320    -1.7860     0.8470 ca         1 94I       0.442700
     24 N5          -2.1000     1.2110    -0.6810 nh         1 94I      -0.771300
     25 C11         -4.4840     1.4030     0.9510 c3         1 94I      -0.069400
     26 H1           0.4620    -2.4790    -1.5890 h4         1 94I       0.032600
     27 H2          -2.1440    -4.9580     0.3960 h5         1 94I       0.050100
     28 H3          -2.1690    -0.5660    -1.8010 h1         1 94I       0.054950
     29 H4          -3.0290     0.7880    -2.4720 h1         1 94I       0.054950
     30 H5          -4.6390    -0.7730    -1.7750 hc         1 94I       0.049200
     31 H6          -5.3700     1.5130    -1.0280 hc         1 94I       0.040950
     32 H7          -3.3930     2.6230    -1.4500 h1         1 94I       0.054950
     33 H8          -2.0200     3.3070    -0.6100 h1         1 94I       0.054950
     34 H9          -2.9620     2.8080     1.5540 hc         1 94I       0.049200
     35 H10         -4.2290     3.5180     0.5760 hc         1 94I       0.049200
     36 H11          3.0540    -1.1570    -0.0270 hn         1 94I       0.348500
     37 H12          4.4250    -2.6630     0.9550 hn         1 94I       0.401800
     38 H13          6.0400    -2.6830     0.5210 hn         1 94I       0.401800
     39 H14          6.9620    -0.7010    -0.0280 hn         1 94I       0.379400
     40 H15          1.2310     4.1700     0.4040 hn         1 94I       0.460800
     41 H16          2.7780     3.3870     0.4680 hn         1 94I       0.460800
     42 H17         -2.1150    -1.0010     1.4920 h4         1 94I       0.032600
     43 H18         -5.2980     1.7000     1.6170 hc         1 94I       0.040950
     44 H19         -3.9120     0.6530     1.5040 hc         1 94I       0.040950
     45 H20         -3.9140    -1.0430    -0.2150 hc         1 94I       0.049200
     46 H21         -5.9750     0.2130    -0.0380 hc         1 94I       0.040950
     47 C15          3.3540     0.8190     0.1130 c          1 94I       0.624600
@<TRIPOS>BOND
     1     1    17 ar  
     2     1    19 ar  
     3     1    20 1   
     4     2    20 ar  
     5     2    21 ar  
     6     2    26 1   
     7     3    21 ar  
     8     3    22 ar  
     9     3    27 1   
    10     4    11 ar  
    11     4    16 ar  
    12     4    18 1   
    13     5     6 1   
    14     5    24 1   
    15     5    28 1   
    16     5    29 1   
    17     6     7 1   
    18     6    30 1   
    19     6    45 1   
    20     7    25 1   
    21     7    31 1   
    22     7    46 1   
    23     8     9 1   
    24     8    24 1   
    25     8    32 1   
    26     8    33 1   
    27     9    25 1   
    28     9    34 1   
    29     9    35 1   
    30    10    12 1   
    31    10    13 1   
    32    10    15 2   
    33    11    19 ar  
    34    12    36 1   
    35    12    47 1   
    36    13    37 1   
    37    13    38 1   
    38    14    47 2   
    39    15    39 1   
    40    16    17 ar  
    41    16    47 1   
    42    18    40 1   
    43    18    41 1   
    44    19    24 1   
    45    20    23 ar  
    46    22    23 ar  
    47    23    42 1   
    48    25    43 1   
    49    25    44 1   
@<TRIPOS>SUBSTRUCTURE
     1 94I         1 TEMP              0 ****  ****    0 ROOT
