@<TRIPOS>MOLECULE
94J
   55    56     1     0     0
SMALL
abcg2


@<TRIPOS>ATOM
      1 C5          -4.6910    -1.0520    -0.8800 c          1 94J       0.677100
      2 C6           4.8650     1.2290     0.0010 c          1 94J       0.677100
      3 C7          -7.7370    -0.3960     0.0540 ca         1 94J      -0.281500
      4 C8           8.0080     0.4110    -0.3180 ca         1 94J      -0.281500
      5 C14          8.2350    -0.2710     0.8670 ca         1 94J       0.001500
      6 C13         -7.9910     0.9690     0.0400 ca         1 94J       0.001500
      7 C19         -8.3340     1.5780     1.2340 ca         1 94J       0.094500
      8 C20          8.7360    -1.5600     0.7870 ca         1 94J       0.094500
      9 C23          8.2680    -0.1570    -1.5570 ca         1 94J      -0.002000
     10 C24         -7.8290    -1.1500     1.2110 ca         1 94J      -0.002000
     11 C25         -8.1840    -0.5130     2.3910 ca         1 94J      -0.124000
     12 C26          8.7620    -1.4500    -1.6050 ca         1 94J      -0.124000
     13 C27          2.5180     0.5730     0.1050 c3         1 94J       0.113500
     14 C28         -2.3160    -0.7460    -0.4260 c3         1 94J       0.113500
     15 C29         -8.4340     0.8500     2.4120 ca         1 94J      -0.049000
     16 C30          9.0010    -2.1580    -0.4350 ca         1 94J      -0.049000
     17 C31          1.3150     0.5610    -0.8230 c3         1 94J      -0.096400
     18 C32         -1.1230    -0.0590    -1.0710 c3         1 94J      -0.096400
     19 C33          0.1110    -0.1130    -0.1800 c3         1 94J      -0.070400
     20 N17         -3.4980    -0.5710    -1.2490 ns         1 94J      -0.510900
     21 N18          3.6390     1.2330    -0.5360 ns         1 94J      -0.510900
     22 N3           5.8070     1.9510    -0.7330 ns         1 94J      -0.607300
     23 N4          -5.7290    -0.7250    -1.7520 ns         1 94J      -0.607300
     24 O10          7.4680     2.5550     1.0970 o          1 94J      -0.525250
     25 O11          8.0200     2.8240    -1.3370 o          1 94J      -0.525250
     26 O12         -7.3840    -2.6080    -1.3060 o          1 94J      -0.525250
     27 O15         -4.8960    -1.7150     0.1200 o          1 94J      -0.607100
     28 O16          5.1760     0.6530     1.0270 o          1 94J      -0.607100
     29 O9          -8.0390    -0.5310    -2.5510 o          1 94J      -0.525250
     30 S1          -7.3040    -1.1740    -1.4770 sy         1 94J       1.200300
     31 S2           7.3950     2.0710    -0.2650 sy         1 94J       1.200300
     32 CL21        -8.6490     3.2770     1.2550 cl         1 94J      -0.190500
     33 CL22         9.0330    -2.4380     2.2470 cl         1 94J      -0.190500
     34 H1           8.0310     0.1830     1.8260 ha         1 94J       0.152500
     35 H2          -7.9260     1.5500    -0.8700 ha         1 94J       0.152500
     36 H3           8.0930     0.3880    -2.4750 ha         1 94J       0.141500
     37 H4          -7.6340    -2.2120     1.2050 ha         1 94J       0.141500
     38 H5          -8.2650    -1.0840     3.3060 ha         1 94J       0.125000
     39 H6           8.9690    -1.9120    -2.5600 ha         1 94J       0.125000
     40 H7           2.2580     1.0800     1.0400 h1         1 94J       0.057700
     41 H8           2.8000    -0.4500     0.3620 h1         1 94J       0.057700
     42 H9          -2.1060    -1.8100    -0.2940 h1         1 94J       0.057700
     43 H10         -2.4910    -0.3250     0.5680 h1         1 94J       0.057700
     44 H11         -8.7080     1.3410     3.3360 ha         1 94J       0.132000
     45 H12          9.3900    -3.1660    -0.4780 ha         1 94J       0.132000
     46 H13          1.0530     1.5900    -1.0930 hc         1 94J       0.045200
     47 H14          1.5750     0.0470    -1.7520 hc         1 94J       0.045200
     48 H15         -0.9050    -0.5280    -2.0350 hc         1 94J       0.045200
     49 H16         -1.3750     0.9860    -1.2760 hc         1 94J       0.045200
     50 H17          0.3560    -1.1550     0.0500 hc         1 94J       0.050700
     51 H18         -0.1130     0.3710     0.7760 hc         1 94J       0.050700
     52 H19         -3.4130    -0.0290    -2.0950 hn         1 94J       0.318500
     53 H20          3.4470     1.8110    -1.3390 hn         1 94J       0.318500
     54 H21          5.5960     2.3130    -1.6550 hn         1 94J       0.340500
     55 H22         -5.5970    -0.0580    -2.5030 hn         1 94J       0.340500
@<TRIPOS>BOND
     1     1    20 1   
     2     1    23 1   
     3     1    27 2   
     4     2    21 1   
     5     2    22 1   
     6     2    28 2   
     7     3     6 ar  
     8     3    10 ar  
     9     3    30 1   
    10     4     5 ar  
    11     4     9 ar  
    12     4    31 1   
    13     5     8 ar  
    14     5    34 1   
    15     6     7 ar  
    16     6    35 1   
    17     7    15 ar  
    18     7    32 1   
    19     8    16 ar  
    20     8    33 1   
    21     9    12 ar  
    22     9    36 1   
    23    10    11 ar  
    24    10    37 1   
    25    11    15 ar  
    26    11    38 1   
    27    12    16 ar  
    28    12    39 1   
    29    13    17 1   
    30    13    21 1   
    31    13    40 1   
    32    13    41 1   
    33    14    18 1   
    34    14    20 1   
    35    14    42 1   
    36    14    43 1   
    37    15    44 1   
    38    16    45 1   
    39    17    19 1   
    40    17    46 1   
    41    17    47 1   
    42    18    19 1   
    43    18    48 1   
    44    18    49 1   
    45    19    50 1   
    46    19    51 1   
    47    20    52 1   
    48    21    53 1   
    49    22    31 1   
    50    22    54 1   
    51    23    30 1   
    52    23    55 1   
    53    24    31 2   
    54    25    31 2   
    55    26    30 2   
    56    29    30 2   
@<TRIPOS>SUBSTRUCTURE
     1 94J         1 TEMP              0 ****  ****    0 ROOT
