@<TRIPOS>MOLECULE
94J
   55    56     1     0     0
SMALL
No Charge or Current Charge


@<TRIPOS>ATOM
      1 C5          -4.7770    -1.0590    -0.6850 c          1 94J       0.677100
      2 C6           5.0390     1.1440     0.0910 c          1 94J       0.677100
      3 C7          -7.9860    -0.3680    -0.0630 ca         1 94J      -0.281500
      4 C8           8.2480     0.4390    -0.4910 ca         1 94J      -0.281500
      5 C14          8.4420    -0.3150     0.6890 ca         1 94J       0.001500
      6 C13         -8.3990     0.9820    -0.1230 ca         1 94J       0.001500
      7 C19         -8.8950     1.6180     1.0280 ca         1 94J       0.094500
      8 C20          8.9970    -1.6040     0.6160 ca         1 94J       0.094500
      9 C23          8.6090    -0.1120    -1.7390 ca         1 94J      -0.002000
     10 C24         -8.0700    -1.0690     1.1600 ca         1 94J      -0.002000
     11 C25         -8.5680    -0.4260     2.3070 ca         1 94J      -0.124000
     12 C26          9.1640    -1.4020    -1.8030 ca         1 94J      -0.124000
     13 C27          2.6440     0.4430     0.1980 c3         1 94J       0.113500
     14 C28         -2.3490    -0.7120    -0.2170 c3         1 94J       0.113500
     15 C29         -8.9810     0.9170     2.2420 ca         1 94J      -0.049000
     16 C30          9.3590    -2.1490    -0.6270 ca         1 94J      -0.049000
     17 C31          1.3560     0.5980    -0.6320 c3         1 94J      -0.096400
     18 C32         -1.1450     0.0200    -0.8410 c3         1 94J      -0.096400
     19 C33          0.1480    -0.1350    -0.0100 c3         1 94J      -0.070400
     20 N17         -3.5570    -0.5470    -1.0250 ns         1 94J      -0.510900
     21 N18          3.7700     1.1460    -0.4160 ns         1 94J      -0.510900
     22 N3           5.8910     1.8610    -0.6650 ns         1 94J      -0.607300
     23 N4          -5.7260    -0.7600    -1.5930 ns         1 94J      -0.607300
     24 O10          7.6640     2.5940     0.9660 o          1 94J      -0.525250
     25 O11          7.9880     2.8690    -1.5590 o          1 94J      -0.525250
     26 O12         -7.3940    -2.6310    -1.3450 o          1 94J      -0.525250
     27 O15         -4.9700    -1.7050     0.3280 o          1 94J      -0.607100
     28 O16          5.3480     0.5530     1.1090 o          1 94J      -0.607100
     29 O9          -7.9350    -0.5420    -2.7220 o          1 94J      -0.525250
     30 S1          -7.3440    -1.1770    -1.5400 sy         1 94J       1.200300
     31 S2           7.5270     2.0890    -0.4050 sy         1 94J       1.200300
     32 Cl21        -9.4100     3.3000     0.9490 cl         1 94J      -0.190500
     33 Cl22         9.2370    -2.5410     2.0860 cl         1 94J      -0.190500
     34 H1           8.1620     0.0880     1.6600 ha         1 94J       0.152500
     35 H2          -8.3390     1.5420    -1.0550 ha         1 94J       0.152500
     36 H3           8.4620     0.4520    -2.6600 ha         1 94J       0.141500
     37 H4          -7.7480    -2.1080     1.2280 ha         1 94J       0.141500
     38 H5          -8.6310    -0.9680     3.2480 ha         1 94J       0.125000
     39 H6           9.4430    -1.8250    -2.7660 ha         1 94J       0.125000
     40 H7           2.4830     0.8460     1.2080 h1         1 94J       0.057700
     41 H8           2.8980    -0.6220     0.2890 h1         1 94J       0.057700
     42 H9          -2.1240    -1.7840    -0.1300 h1         1 94J       0.057700
     43 H10         -2.5390    -0.3170     0.7900 h1         1 94J       0.057700
     44 H11         -9.3650     1.4130     3.1300 ha         1 94J       0.132000
     45 H12          9.7880    -3.1460    -0.6790 ha         1 94J       0.132000
     46 H13          1.1200     1.6650    -0.7320 hc         1 94J       0.045200
     47 H14          1.5320     0.2100    -1.6430 hc         1 94J       0.045200
     48 H15         -0.9730    -0.3690    -1.8520 hc         1 94J       0.045200
     49 H16         -1.3850     1.0860    -0.9400 hc         1 94J       0.045200
     50 H17          0.3860    -1.2010     0.0920 hc         1 94J       0.050700
     51 H18         -0.0260     0.2520     1.0030 hc         1 94J       0.050700
     52 H19         -3.4940    -0.0250    -1.8880 hn         1 94J       0.318500
     53 H20          3.6090     1.6670    -1.2670 hn         1 94J       0.318500
     54 H21          5.5820     2.3070    -1.5090 hn         1 94J       0.340500
     55 H22         -5.5100    -0.2040    -2.4000 hn         1 94J       0.340500
@<TRIPOS>BOND
     1     1    20 1   
     2     1    23 1   
     3     1    27 2   
     4     2    21 1   
     5     2    22 1   
     6     2    28 2   
     7     3     6 ar  
     8     3    10 ar  
     9     3    30 1   
    10     4     5 ar  
    11     4     9 ar  
    12     4    31 1   
    13     5     8 ar  
    14     5    34 1   
    15     6     7 ar  
    16     6    35 1   
    17     7    15 ar  
    18     7    32 1   
    19     8    16 ar  
    20     8    33 1   
    21     9    12 ar  
    22     9    36 1   
    23    10    11 ar  
    24    10    37 1   
    25    11    15 ar  
    26    11    38 1   
    27    12    16 ar  
    28    12    39 1   
    29    13    17 1   
    30    13    21 1   
    31    13    40 1   
    32    13    41 1   
    33    14    18 1   
    34    14    20 1   
    35    14    42 1   
    36    14    43 1   
    37    15    44 1   
    38    16    45 1   
    39    17    19 1   
    40    17    46 1   
    41    17    47 1   
    42    18    19 1   
    43    18    48 1   
    44    18    49 1   
    45    19    50 1   
    46    19    51 1   
    47    20    52 1   
    48    21    53 1   
    49    22    31 1   
    50    22    54 1   
    51    23    30 1   
    52    23    55 1   
    53    24    31 2   
    54    25    31 2   
    55    26    30 2   
    56    29    30 2   
@<TRIPOS>SUBSTRUCTURE
     1 94J         1 TEMP              0 ****  ****    0 ROOT
