@<TRIPOS>MOLECULE
94K
   44    46     1     0     0
SMALL
No Charge or Current Charge


@<TRIPOS>ATOM
      1 C16         -4.8070     3.0770    -0.9640 ca         1 94K      -0.106000
      2 C21          5.6420     0.9660     0.7990 ca         1 94K      -0.106000
      3 C15         -5.1830     1.8670    -1.5710 ca         1 94K      -0.111000
      4 C17         -3.9700     3.0630     0.1640 ca         1 94K      -0.111000
      5 C22          5.3350     2.3250     0.9350 ca         1 94K      -0.098000
      6 C20          4.6270     0.0400     0.5070 ca         1 94K      -0.098000
      7 C14         -4.7230     0.6450    -1.0510 ca         1 94K      -0.094000
      8 C18         -3.5110     1.8410     0.6860 ca         1 94K      -0.094000
      9 C23          4.0120     2.7550     0.7660 ca         1 94K      -0.105000
     10 C5           0.9010    -0.5740     0.2340 cc         1 94K      -0.090000
     11 C19          3.2780     0.4440     0.3510 ca         1 94K       0.000000
     12 C6           0.1930    -1.7140    -0.2610 cc         1 94K      -0.193600
     13 C13         -3.8870     0.6210     0.0850 ca         1 94K      -0.100300
     14 C24          2.9860     1.8360     0.4750 ca         1 94K       0.133000
     15 C4           2.2660    -0.6120     0.0660 cd         1 94K      -0.176000
     16 C2           1.0410    -2.6420    -0.8350 cd         1 94K      -0.126300
     17 C1           0.7110    -3.9690    -1.4750 c3         1 94K      -0.026800
     18 C11         -3.7710    -0.9070     2.1360 c3         1 94K       0.137800
     19 C10         -3.3870    -0.7130     0.6370 c3         1 94K       0.163000
     20 N9          -1.9380    -0.8200     0.4250 ns         1 94K      -0.505900
     21 N12         -3.4350    -2.2510     2.6730 n8         1 94K      -0.994200
     22 O8          -1.9070    -2.8530    -0.5840 o          1 94K      -0.595100
     23 S3           2.7320    -2.1130    -0.7640 ss         1 94K       0.225000
     24 Cl1          1.3950     2.5390     0.1730 cl         1 94K      -0.196000
     25 H1          -5.1620     4.0220    -1.3670 ha         1 94K       0.111000
     26 H3          -5.8280     1.8760    -2.4460 ha         1 94K       0.112000
     27 H4          -3.6760     3.9990     0.6330 ha         1 94K       0.112000
     28 H5           6.1200     3.0440     1.1590 ha         1 94K       0.120000
     29 H6           4.9050    -1.0070     0.4320 ha         1 94K       0.122000
     30 H7          -5.0190    -0.2850    -1.5330 ha         1 94K       0.111000
     31 H8          -2.8580     1.8480     1.5560 ha         1 94K       0.111000
     32 H9           3.7780     3.8130     0.8480 ha         1 94K       0.130000
     33 H10          0.3910     0.2350     0.7370 ha         1 94K       0.135000
     34 H11          0.0350    -3.8390    -2.3290 hc         1 94K       0.058700
     35 H12          1.6130    -4.4720    -1.8430 hc         1 94K       0.058700
     36 H13          0.2270    -4.6430    -0.7590 hc         1 94K       0.058700
     37 H14         -3.2530    -0.1530     2.7440 h1         1 94K       0.037700
     38 H15         -4.8530    -0.7500     2.2520 h1         1 94K       0.037700
     39 H16         -3.8860    -1.5150     0.0750 h1         1 94K       0.093700
     40 H17         -1.3600    -0.0450     0.7140 hn         1 94K       0.309500
     41 H18         -2.4230    -2.3980     2.5820 hn         1 94K       0.395500
     42 H19         -3.5940    -2.2580     3.6880 hn         1 94K       0.395500
     43 C7          -1.2930    -1.8800    -0.1700 c          1 94K       0.639700
     44 H2           6.6680     0.6260     0.9260 ha         1 94K       0.120000
@<TRIPOS>BOND
     1     1     3 ar  
     2     1     4 ar  
     3     1    25 1   
     4     2     5 ar  
     5     2     6 ar  
     6     2    44 1   
     7     3     7 ar  
     8     3    26 1   
     9     4     8 ar  
    10     4    27 1   
    11     5     9 ar  
    12     5    28 1   
    13     6    11 ar  
    14     6    29 1   
    15     7    13 ar  
    16     7    30 1   
    17     8    13 ar  
    18     8    31 1   
    19     9    14 ar  
    20     9    32 1   
    21    10    12 1   
    22    10    15 2   
    23    10    33 1   
    24    11    14 ar  
    25    11    15 1   
    26    12    16 2   
    27    12    43 1   
    28    13    19 1   
    29    14    24 1   
    30    15    23 1   
    31    16    17 1   
    32    16    23 1   
    33    17    34 1   
    34    17    35 1   
    35    17    36 1   
    36    18    19 1   
    37    18    21 1   
    38    18    37 1   
    39    18    38 1   
    40    19    20 1   
    41    19    39 1   
    42    20    40 1   
    43    20    43 1   
    44    21    41 1   
    45    21    42 1   
    46    22    43 2   
@<TRIPOS>SUBSTRUCTURE
     1 94K         1 TEMP              0 ****  ****    0 ROOT
