@<TRIPOS>MOLECULE
94K
   44    46     1     0     0
SMALL
abcg2


@<TRIPOS>ATOM
      1 C16         -5.1390     2.3960    -1.3010 ca         1 94K      -0.106000
      2 C21          5.6130     0.5330     1.3860 ca         1 94K      -0.106000
      3 C15         -5.7470     1.1490    -1.2360 ca         1 94K      -0.111000
      4 C17         -3.9210     2.5980    -0.6640 ca         1 94K      -0.111000
      5 C22          5.5610     1.9190     1.4270 ca         1 94K      -0.098000
      6 C20          4.5330    -0.1810     0.8960 ca         1 94K      -0.098000
      7 C14         -5.1380     0.1140    -0.5390 ca         1 94K      -0.094000
      8 C18         -3.3160     1.5600     0.0310 ca         1 94K      -0.094000
      9 C23          4.4320     2.5810     0.9700 ca         1 94K      -0.105000
     10 C5           0.9390    -0.2790     0.1840 cc         1 94K      -0.090000
     11 C19          3.3800     0.4580     0.4290 ca         1 94K       0.000000
     12 C6           0.1670    -1.2610    -0.5010 cc         1 94K      -0.193600
     13 C13         -3.9180     0.3080     0.1020 ca         1 94K      -0.100300
     14 C24          3.3590     1.8550     0.4740 ca         1 94K       0.133000
     15 C4           2.2710    -0.3460    -0.0890 cd         1 94K      -0.176000
     16 C2           0.9310    -2.0750    -1.3010 cd         1 94K      -0.126300
     17 C1           0.5300    -3.2100    -2.1840 c3         1 94K      -0.026800
     18 C11         -3.6100    -0.6520     2.3890 c3         1 94K       0.137800
     19 C10         -3.3010    -0.8170     0.9020 c3         1 94K       0.163000
     20 N9          -1.8660    -0.8970     0.7190 ns         1 94K      -0.505900
     21 N12         -3.2270    -1.8330     3.1420 n8         1 94K      -0.994200
     22 O8          -1.9730    -1.9050    -1.2920 o          1 94K      -0.595100
     23 S3           2.5820    -1.6340    -1.1960 ss         1 94K       0.225000
     24 CL1          1.9990     2.7440    -0.1290 cl         1 94K      -0.196000
     25 H1          -5.6080     3.2030    -1.8490 ha         1 94K       0.111000
     26 H3          -6.6930     0.9780    -1.7340 ha         1 94K       0.112000
     27 H4          -3.4400     3.5670    -0.7090 ha         1 94K       0.112000
     28 H5           6.3960     2.4890     1.8110 ha         1 94K       0.120000
     29 H6           4.5720    -1.2640     0.8860 ha         1 94K       0.122000
     30 H7          -5.6140    -0.8590    -0.4980 ha         1 94K       0.111000
     31 H8          -2.3620     1.7360     0.5150 ha         1 94K       0.111000
     32 H9           4.3870     3.6610     0.9910 ha         1 94K       0.130000
     33 H10          0.5260     0.4620     0.8530 ha         1 94K       0.135000
     34 H11          0.0190    -2.8490    -3.0760 hc         1 94K       0.058700
     35 H12          1.3980    -3.7840    -2.5050 hc         1 94K       0.058700
     36 H13         -0.1490    -3.8860    -1.6670 hc         1 94K       0.058700
     37 H14         -3.1470     0.2820     2.7420 h1         1 94K       0.037700
     38 H15         -4.6890    -0.5150     2.4870 h1         1 94K       0.037700
     39 H16         -3.7430    -1.7620     0.5770 h1         1 94K       0.093700
     40 H17         -1.2750    -0.4970     1.4300 hn         1 94K       0.309500
     41 H18         -2.2190    -1.8990     3.2020 hn         1 94K       0.395500
     42 H19         -3.5490    -1.7370     4.0960 hn         1 94K       0.395500
     43 C7          -1.3080    -1.3880    -0.4060 c          1 94K       0.639700
     44 H2           6.4880     0.0080     1.7420 ha         1 94K       0.120000
@<TRIPOS>BOND
     1     1     3 ar  
     2     1     4 ar  
     3     1    25 1   
     4     2     5 ar  
     5     2     6 ar  
     6     2    44 1   
     7     3     7 ar  
     8     3    26 1   
     9     4     8 ar  
    10     4    27 1   
    11     5     9 ar  
    12     5    28 1   
    13     6    11 ar  
    14     6    29 1   
    15     7    13 ar  
    16     7    30 1   
    17     8    13 ar  
    18     8    31 1   
    19     9    14 ar  
    20     9    32 1   
    21    10    12 1   
    22    10    15 2   
    23    10    33 1   
    24    11    14 ar  
    25    11    15 1   
    26    12    16 2   
    27    12    43 1   
    28    13    19 1   
    29    14    24 1   
    30    15    23 1   
    31    16    17 1   
    32    16    23 1   
    33    17    34 1   
    34    17    35 1   
    35    17    36 1   
    36    18    19 1   
    37    18    21 1   
    38    18    37 1   
    39    18    38 1   
    40    19    20 1   
    41    19    39 1   
    42    20    40 1   
    43    20    43 1   
    44    21    41 1   
    45    21    42 1   
    46    22    43 2   
@<TRIPOS>SUBSTRUCTURE
     1 94K         1 TEMP              0 ****  ****    0 ROOT
