@<TRIPOS>MOLECULE
94L
   53    56     1     0     0
SMALL
No Charge or Current Charge


@<TRIPOS>ATOM
      1 C10          1.9710     0.2860    -0.2720 ca         1 94L      -0.183600
      2 C13          0.9390    -1.8550    -0.8160 ca         1 94L      -0.185000
      3 C15         -0.4590    -0.0050    -0.1150 ca         1 94L      -0.230600
      4 C17         -1.8120     0.5780     0.1360 c          1 94L       0.596600
      5 C20         -4.2370     0.3100     0.1420 ca         1 94L       0.041600
      6 C21         -2.8160    -1.5920    -0.4450 c          1 94L       0.624000
      7 C24         -4.8460     0.2360     1.4180 ca         1 94L      -0.042800
      8 C26         -6.8020     1.4010     0.5410 ca         1 94L      -0.094000
      9 C28         -4.9160     0.9320    -0.9340 ca         1 94L      -0.042800
     10 C1           6.9930     0.5320    -0.6670 c6         1 94L      -0.072200
     11 C2           7.2420    -0.3580     0.5720 c6         1 94L      -0.064400
     12 C3           6.0440    -1.3050     0.7930 c6         1 94L      -0.181400
     13 C4           4.7400    -0.5160     0.9380 c          1 94L       0.607300
     14 C5           4.5360     0.6090    -0.0090 ce         1 94L      -0.493400
     15 C6           5.5800     1.0980    -0.7120 c2         1 94L       0.281900
     16 O7           5.4660     2.1380    -1.5430 oh         1 94L      -0.533100
     17 C9           3.1760     1.1830    -0.1580 c          1 94L       0.641900
     18 O11          3.0690     2.3820    -0.3890 o          1 94L      -0.599100
     19 C12          2.0820    -1.0490    -0.7050 ca         1 94L       0.008000
     20 C14         -0.3370    -1.3530    -0.4770 ca         1 94L       0.143600
     21 C16          0.6910     0.8060    -0.0010 ca         1 94L       0.038000
     22 N18         -2.9250    -0.2470    -0.0630 n          1 94L      -0.297600
     23 O19         -1.9370     1.7430     0.4930 o          1 94L      -0.506000
     24 O22         -3.8220    -2.2710    -0.6100 o          1 94L      -0.537000
     25 N23         -1.5260    -2.1400    -0.6230 n          1 94L      -0.301000
     26 C25         -6.1290     0.7840     1.6070 ca         1 94L      -0.112000
     27 C27         -6.1980     1.4740    -0.7230 ca         1 94L      -0.112000
     28 C29         -4.1330    -0.4290     2.5930 c3         1 94L      -0.048300
     29 C30         -4.2800     1.0240    -2.3180 c3         1 94L      -0.048300
     30 C31         -1.4010    -3.6010    -0.8790 c3         1 94L       0.084300
     31 H1           1.0680    -2.8740    -1.1670 ha         1 94L       0.126000
     32 H2          -7.7930     1.8220     0.6960 ha         1 94L       0.113000
     33 H3           7.7290     1.3480    -0.6880 hc         1 94L       0.079200
     34 H4           7.1610    -0.0560    -1.5800 hc         1 94L       0.079200
     35 H5           8.1710    -0.9330     0.4470 hc         1 94L       0.057700
     36 H6           7.3790     0.2740     1.4610 hc         1 94L       0.057700
     37 H7           5.9480    -1.9020    -0.1230 hc         1 94L       0.070700
     38 H8           6.1800    -1.9840     1.6450 hc         1 94L       0.070700
     39 H11          4.5650     2.5060    -1.3580 ho         1 94L       0.545000
     40 H12          3.0480    -1.4670    -0.9800 ha         1 94L       0.118000
     41 H13          0.5930     1.8500     0.2960 ha         1 94L       0.152000
     42 H14         -6.6080     0.7340     2.5820 ha         1 94L       0.114000
     43 H15         -6.7310     1.9550    -1.5410 ha         1 94L       0.114000
     44 H16         -3.1810     0.0690     2.8090 hc         1 94L       0.046033
     45 H17         -4.7360    -0.3950     3.5080 hc         1 94L       0.046033
     46 H18         -3.9210    -1.4830     2.3800 hc         1 94L       0.046033
     47 H19         -4.0540     0.0270    -2.7150 hc         1 94L       0.046033
     48 H20         -4.9400     1.5210    -3.0380 hc         1 94L       0.046033
     49 H21         -3.3440     1.5940    -2.2840 hc         1 94L       0.046033
     50 H22         -2.3410    -4.1350    -0.6990 h1         1 94L       0.058367
     51 H23         -1.0970    -3.7660    -1.9200 h1         1 94L       0.058367
     52 H24         -0.6450    -4.0320    -0.2090 h1         1 94L       0.058367
     53 O8           3.9220    -0.8020     1.7980 o          1 94L      -0.533100
@<TRIPOS>BOND
     1     1    17 1   
     2     1    19 ar  
     3     1    21 ar  
     4     2    19 ar  
     5     2    20 ar  
     6     2    31 1   
     7     3     4 1   
     8     3    20 ar  
     9     3    21 ar  
    10     4    22 1   
    11     4    23 2   
    12     5     7 ar  
    13     5     9 ar  
    14     5    22 1   
    15     6    22 1   
    16     6    24 2   
    17     6    25 1   
    18     7    26 ar  
    19     7    28 1   
    20     8    26 ar  
    21     8    27 ar  
    22     8    32 1   
    23     9    27 ar  
    24     9    29 1   
    25    10    11 1   
    26    10    15 1   
    27    10    33 1   
    28    10    34 1   
    29    11    12 1   
    30    11    35 1   
    31    11    36 1   
    32    12    13 1   
    33    12    37 1   
    34    12    38 1   
    35    13    14 1   
    36    13    53 2   
    37    14    15 2   
    38    14    17 1   
    39    15    16 1   
    40    16    39 1   
    41    17    18 2   
    42    19    40 1   
    43    20    25 1   
    44    21    41 1   
    45    25    30 1   
    46    26    42 1   
    47    27    43 1   
    48    28    44 1   
    49    28    45 1   
    50    28    46 1   
    51    29    47 1   
    52    29    48 1   
    53    29    49 1   
    54    30    50 1   
    55    30    51 1   
    56    30    52 1   
@<TRIPOS>SUBSTRUCTURE
     1 94L         1 TEMP              0 ****  ****    0 ROOT
