@<TRIPOS>MOLECULE
94L
   53    56     1     0     0
SMALL
bcc


@<TRIPOS>ATOM
      1 C10          1.9210     0.1220    -0.5650 ca         1 94L      -0.183600
      2 C13          0.8000    -1.9770    -1.0060 ca         1 94L      -0.203000
      3 C15         -0.4670    -0.0590    -0.2940 ca         1 94L      -0.230600
      4 C17         -1.7390     0.5720     0.0390 c          1 94L       0.739100
      5 C20         -4.1290     0.3180     0.2020 ca         1 94L       0.041600
      6 C21         -2.8240    -1.5970    -0.4270 c          1 94L       0.833500
      7 C24         -4.6180     0.2770     1.5050 ca         1 94L      -0.042800
      8 C26         -6.5840     1.4420     0.7220 ca         1 94L      -0.112000
      9 C28         -4.8290     0.9060    -0.8480 ca         1 94L      -0.042800
     10 C1           6.9480     0.7110    -0.3230 c6         1 94L      -0.072200
     11 C2           7.0320    -0.1560     0.9220 c6         1 94L      -0.064400
     12 C3           5.9590    -1.2320     0.9000 c6         1 94L      -0.181400
     13 C4           4.5770    -0.6470     0.7550 c          1 94L       0.607300
     14 C5           4.4320     0.4820    -0.1730 ce         1 94L      -0.493400
     15 C6           5.5590     1.1780    -0.5920 c2         1 94L       0.281900
     16 O7           5.4790     2.2770    -1.2780 oh         1 94L      -0.494100
     17 C9           3.1350     0.9700    -0.6110 c          1 94L       0.641900
     18 O11          3.0190     2.0970    -1.1140 o          1 94L      -0.599100
     19 C12          1.9500    -1.2230    -0.9450 ca         1 94L      -0.010000
     20 C14         -0.4320    -1.4060    -0.6630 ca         1 94L       0.143600
     21 C16          0.7010     0.6970    -0.2660 ca         1 94L       0.020000
     22 N18         -2.8430    -0.2540    -0.0700 n          1 94L      -0.431600
     23 O19         -1.8600     1.7310     0.3760 o          1 94L      -0.581500
     24 O22         -3.8570    -2.2260    -0.4900 o          1 94L      -0.612500
     25 N23         -1.5960    -2.1460    -0.6930 n          1 94L      -0.368000
     26 C25         -5.8630     0.8510     1.7480 ca         1 94L      -0.130000
     27 C27         -6.0710     1.4680    -0.5660 ca         1 94L      -0.130000
     28 C29         -3.8380    -0.3600     2.6150 c3         1 94L      -0.048300
     29 C30         -4.2670     0.9440    -2.2390 c3         1 94L      -0.048300
     30 C31         -1.5340    -3.5600    -1.0380 c3         1 94L       0.084300
     31 H1           0.8710    -3.0050    -1.3270 ha         1 94L       0.144000
     32 H2          -7.5500     1.8840     0.9270 ha         1 94L       0.131000
     33 H3           7.6100     1.5750    -0.2540 hc         1 94L       0.079200
     34 H4           7.2710     0.1420    -1.2030 hc         1 94L       0.079200
     35 H5           8.0200    -0.6100     0.9860 hc         1 94L       0.057700
     36 H6           6.9110     0.4690     1.8110 hc         1 94L       0.057700
     37 H7           6.1210    -1.8980     0.0440 hc         1 94L       0.070700
     38 H8           5.9920    -1.8480     1.7990 hc         1 94L       0.070700
     39 H11          4.5030     2.5030    -1.3650 ho         1 94L       0.506000
     40 H12          2.8820    -1.6880    -1.2370 ha         1 94L       0.136000
     41 H13          0.6380     1.7410     0.0100 ha         1 94L       0.170000
     42 H14         -6.2660     0.8340     2.7520 ha         1 94L       0.132000
     43 H15         -6.6360     1.9330    -1.3640 ha         1 94L       0.132000
     44 H16         -2.9060     0.1730     2.8140 hc         1 94L       0.046033
     45 H17         -4.4150    -0.3600     3.5380 hc         1 94L       0.046033
     46 H18         -3.5790    -1.3960     2.3930 hc         1 94L       0.046033
     47 H19         -4.0280    -0.0520    -2.6140 hc         1 94L       0.046033
     48 H20         -4.9830     1.3890    -2.9280 hc         1 94L       0.046033
     49 H21         -3.3540     1.5400    -2.2870 hc         1 94L       0.046033
     50 H22         -2.5170    -3.9990    -0.9330 h1         1 94L       0.058367
     51 H23         -1.1990    -3.6910    -2.0660 h1         1 94L       0.058367
     52 H24         -0.8510    -4.0780    -0.3670 h1         1 94L       0.058367
     53 O8           3.6340    -1.0900     1.3840 o          1 94L      -0.533100
@<TRIPOS>BOND
     1     1    17 1   
     2     1    19 ar  
     3     1    21 ar  
     4     2    19 ar  
     5     2    20 ar  
     6     2    31 1   
     7     3     4 1   
     8     3    20 ar  
     9     3    21 ar  
    10     4    22 1   
    11     4    23 2   
    12     5     7 ar  
    13     5     9 ar  
    14     5    22 1   
    15     6    22 1   
    16     6    24 2   
    17     6    25 1   
    18     7    26 ar  
    19     7    28 1   
    20     8    26 ar  
    21     8    27 ar  
    22     8    32 1   
    23     9    27 ar  
    24     9    29 1   
    25    10    11 1   
    26    10    15 1   
    27    10    33 1   
    28    10    34 1   
    29    11    12 1   
    30    11    35 1   
    31    11    36 1   
    32    12    13 1   
    33    12    37 1   
    34    12    38 1   
    35    13    14 1   
    36    13    53 2   
    37    14    15 2   
    38    14    17 1   
    39    15    16 1   
    40    16    39 1   
    41    17    18 2   
    42    19    40 1   
    43    20    25 1   
    44    21    41 1   
    45    25    30 1   
    46    26    42 1   
    47    27    43 1   
    48    28    44 1   
    49    28    45 1   
    50    28    46 1   
    51    29    47 1   
    52    29    48 1   
    53    29    49 1   
    54    30    50 1   
    55    30    51 1   
    56    30    52 1   
@<TRIPOS>SUBSTRUCTURE
     1 94L         1 TEMP              0 ****  ****    0 ROOT
