@<TRIPOS>MOLECULE
94M
   37    39     1     0     0
SMALL
bcc


@<TRIPOS>ATOM
      1 N1           3.4820    -1.0540     0.6300 nb         1 94M      -0.784000
      2 C2           2.4270    -1.6820     0.0650 ca         1 94M       0.934900
      3 N2           2.3890    -3.0200     0.2000 nv         1 94M      -0.948500
      4 N3           1.4220    -1.0910    -0.5800 nb         1 94M      -0.788000
      5 C4           1.5320     0.2220    -0.6210 ca         1 94M       0.474800
      6 C5           2.5620     0.9940    -0.0700 ca         1 94M      -0.206200
      7 C6           3.5410     0.2480     0.5600 ca         1 94M       0.642300
      8 CL6          4.8930     1.0350     1.2850 cl         1 94M      -0.136000
      9 N7           2.3450     2.3290    -0.2980 nc         1 94M      -0.523100
     10 C8           1.2270     2.3560    -0.9580 cd         1 94M       0.429700
     11 N9           0.6930     1.1180    -1.2000 na         1 94M      -0.251000
     12 CAA         -5.2450    -1.8010    -0.3760 c3         1 94M       0.127700
     13 CAF         -2.7850     1.6330     0.9280 ca         1 94M       0.408200
     14 CAH         -0.5780     0.8190    -1.8230 c3         1 94M       0.014000
     15 NAI         -1.8560     1.6950    -0.0120 nb         1 94M      -0.666000
     16 CAN         -3.5970     0.5280     1.1430 ca         1 94M      -0.191600
     17 CAP         -2.3820    -0.5520    -0.6630 ca         1 94M      -0.171600
     18 CAR         -1.6590     0.6360    -0.7850 ca         1 94M       0.380600
     19 CAS         -3.3800    -0.5730     0.3160 ca         1 94M       0.127100
     20 HN2          3.2120    -3.5050     0.5110 hn         1 94M       0.443800
     21 HN2A         1.7210    -3.5430    -0.3400 hn         1 94M       0.443800
     22 H8           0.7360     3.2480    -1.3140 h5         1 94M       0.072800
     23 HAA         -5.7620    -2.7220    -0.1200 h1         1 94M       0.038367
     24 HAAA        -5.9350    -0.9620    -0.2610 h1         1 94M       0.038367
     25 HAAB        -4.9270    -1.8510    -1.4200 h1         1 94M       0.038367
     26 HAB         -5.6480     0.4420     1.8020 hc         1 94M       0.048367
     27 HABA        -4.5090    -0.3260     2.8960 hc         1 94M       0.048367
     28 HABB        -4.5960     1.4310     2.8040 hc         1 94M       0.048367
     29 HAC         -1.0210    -1.9700    -1.5210 hc         1 94M       0.054367
     30 HACA        -2.5900    -2.6450    -1.1270 hc         1 94M       0.054367
     31 HACB        -2.4120    -1.6180    -2.5420 hc         1 94M       0.054367
     32 HAF         -2.9060     2.5160     1.5480 h4         1 94M       0.024100
     33 HAH         -0.8310     1.6570    -2.4730 h1         1 94M       0.074700
     34 HAHA        -0.4530    -0.0520    -2.4620 h1         1 94M       0.074700
     35 CAB         -4.6410     0.5160     2.2160 c3         1 94M      -0.038800
     36 CAC         -2.0900    -1.7580    -1.5090 c3         1 94M      -0.052800
     37 OAM         -4.1340    -1.6850     0.5070 os         1 94M      -0.337900
@<TRIPOS>BOND
     1     1     2 ar  
     2     1     7 ar  
     3     2     3 1   
     4     2     4 ar  
     5     3    20 1   
     6     3    21 1   
     7     4     5 ar  
     8     5     6 ar  
     9     5    11 1   
    10     6     7 ar  
    11     6     9 1   
    12     7     8 1   
    13     9    10 2   
    14    10    11 1   
    15    10    22 1   
    16    11    14 1   
    17    12    23 1   
    18    12    24 1   
    19    12    25 1   
    20    12    37 1   
    21    13    15 ar  
    22    13    16 ar  
    23    13    32 1   
    24    14    18 1   
    25    14    33 1   
    26    14    34 1   
    27    15    18 ar  
    28    16    19 ar  
    29    16    35 1   
    30    17    18 ar  
    31    17    19 ar  
    32    17    36 1   
    33    19    37 1   
    34    26    35 1   
    35    27    35 1   
    36    28    35 1   
    37    29    36 1   
    38    30    36 1   
    39    31    36 1   
@<TRIPOS>SUBSTRUCTURE
     1 94M         1 TEMP              0 ****  ****    0 ROOT
