@<TRIPOS>MOLECULE
94M
   37    39     1     0     0
SMALL
No Charge or Current Charge


@<TRIPOS>ATOM
      1 N1           4.0410    -1.5000    -0.1170 nb         1 94M      -0.258000
      2 C2           3.1330    -1.8110    -1.0580 ca         1 94M       0.408900
      3 N2           3.4030    -2.9040    -1.8100 nv         1 94M      -1.058900
      4 N3           1.9890    -1.1640    -1.3440 nb         1 94M      -0.262000
      5 C4           1.7340    -0.0780    -0.5880 ca         1 94M       0.146500
      6 C5           2.5880     0.3390     0.4050 ca         1 94M      -0.075600
      7 C6           3.7650    -0.4080     0.6270 ca         1 94M       0.314000
      8 Cl6          4.9270     0.0360     1.8730 cl         1 94M      -0.136000
      9 N7           2.1340     1.4790     1.0610 nc         1 94M      -0.523100
     10 C8           0.9740     1.7320     0.4240 cd         1 94M       0.429700
     11 N9           0.6880     0.8050    -0.5920 na         1 94M      -0.280300
     12 CAA         -5.1310    -2.0860     0.2290 c3         1 94M       0.150900
     13 CAF         -3.5460     2.1820    -0.0110 ca         1 94M       0.342900
     14 CAH         -0.4890     0.7310    -1.4800 c3         1 94M       0.043300
     15 NAI         -2.3710     2.0370    -0.6600 nb         1 94M      -0.666000
     16 CAN         -4.2350     1.1130     0.5850 ca         1 94M      -0.126300
     17 CAP         -2.4280    -0.3440    -0.1580 ca         1 94M      -0.106300
     18 CAR         -1.8240     0.8000    -0.7370 ca         1 94M       0.315300
     19 CAS         -3.6680    -0.1720     0.4990 ca         1 94M       0.127100
     20 HN2          4.3460    -3.2860    -1.7860 hn         1 94M       0.499000
     21 HN2A         2.8730    -3.0480    -2.6660 hn         1 94M       0.499000
     22 H8           0.2990     2.5520     0.6420 h5         1 94M       0.072800
     23 HAA         -5.5850    -2.8880     0.8230 h1         1 94M       0.038367
     24 HAAA        -5.9360    -1.5090    -0.2430 h1         1 94M       0.038367
     25 HAAB        -4.5250    -2.5450    -0.5620 h1         1 94M       0.038367
     26 HAB         -6.3880     0.8670     0.7630 hc         1 94M       0.048367
     27 HABA        -5.5400     0.9460     2.3170 hc         1 94M       0.048367
     28 HABB        -5.7970     2.4190     1.3740 hc         1 94M       0.048367
     29 HAC         -0.6910    -1.6580     0.0240 hc         1 94M       0.054367
     30 HACA        -2.1960    -2.4450     0.4550 hc         1 94M       0.054367
     31 HACB        -1.8290    -2.1360    -1.2470 hc         1 94M       0.054367
     32 HAF         -3.9490     3.1940     0.0270 h4         1 94M       0.024100
     33 HAH         -0.4320     1.5610    -2.1950 h1         1 94M       0.074700
     34 HAHA        -0.4490    -0.1940    -2.0680 h1         1 94M       0.074700
     35 CAB         -5.5620     1.3500     1.2980 c3         1 94M      -0.038800
     36 CAC         -1.7530    -1.7190    -0.2360 c3         1 94M      -0.052800
     37 OAM         -4.3250    -1.2390     1.0650 os         1 94M      -0.361100
@<TRIPOS>BOND
     1     1     2 ar  
     2     1     7 ar  
     3     2     3 1   
     4     2     4 ar  
     5     3    20 1   
     6     3    21 1   
     7     4     5 ar  
     8     5     6 ar  
     9     5    11 1   
    10     6     7 ar  
    11     6     9 1   
    12     7     8 1   
    13     9    10 2   
    14    10    11 1   
    15    10    22 1   
    16    11    14 1   
    17    12    23 1   
    18    12    24 1   
    19    12    25 1   
    20    12    37 1   
    21    13    15 ar  
    22    13    16 ar  
    23    13    32 1   
    24    14    18 1   
    25    14    33 1   
    26    14    34 1   
    27    15    18 ar  
    28    16    19 ar  
    29    16    35 1   
    30    17    18 ar  
    31    17    19 ar  
    32    17    36 1   
    33    19    37 1   
    34    26    35 1   
    35    27    35 1   
    36    28    35 1   
    37    29    36 1   
    38    30    36 1   
    39    31    36 1   
@<TRIPOS>SUBSTRUCTURE
     1 94M         1 TEMP              0 ****  ****    0 ROOT
