@<TRIPOS>MOLECULE
94N
   13    13     1     0     0
SMALL
No Charge or Current Charge


@<TRIPOS>ATOM
      1 C           -0.0320    -2.5940    -0.0730 ca         1 94N      -0.152000
      2 O           -0.1760     1.5740     0.2370 oh         1 94N      -0.507100
      3 C1          -1.2740    -1.9350    -0.0490 ca         1 94N      -0.030500
      4 C2          -1.3240    -0.5340     0.0550 ca         1 94N      -0.095400
      5 C4           1.1120    -0.4530     0.1110 ca         1 94N      -0.095400
      6 C5           1.1600    -1.8540     0.0070 ca         1 94N      -0.030500
      7 Br1         -3.0360     0.3350     0.0850 br         1 94N      -0.082100
      8 C3          -0.1300     0.2120     0.1350 ca         1 94N       0.199100
      9 Br           2.7590     0.5290     0.2180 br         1 94N      -0.082100
     10 H1           0.0060    -3.6780    -0.1540 ha         1 94N       0.125000
     11 H2           0.7480     1.9010     0.2800 ho         1 94N       0.485000
     12 H3          -2.1950    -2.5110    -0.1120 ha         1 94N       0.133000
     13 H4           2.1200    -2.3680    -0.0120 ha         1 94N       0.133000
@<TRIPOS>BOND
     1     1     3 ar  
     2     1     6 ar  
     3     1    10 1   
     4     2     8 1   
     5     2    11 1   
     6     3     4 ar  
     7     3    12 1   
     8     4     7 1   
     9     4     8 ar  
    10     5     6 ar  
    11     5     8 ar  
    12     5     9 1   
    13     6    13 1   
@<TRIPOS>SUBSTRUCTURE
     1 94N         1 TEMP              0 ****  ****    0 ROOT
