@<TRIPOS>MOLECULE
94N
   13    13     1     0     0
SMALL
bcc


@<TRIPOS>ATOM
      1 C           -0.0310    -2.5870    -0.0720 ca         1 94N      -0.170000
      2 O           -0.2200     1.5380     0.2280 oh         1 94N      -0.468100
      3 C1          -1.2490    -1.9230    -0.0480 ca         1 94N      -0.048500
      4 C2          -1.2770    -0.5440     0.0540 ca         1 94N      -0.095400
      5 C4           1.1070    -0.4850     0.1060 ca         1 94N      -0.095400
      6 C5           1.1490    -1.8670     0.0040 ca         1 94N      -0.048500
      7 BR1         -2.9300     0.3550     0.0890 br         1 94N      -0.082100
      8 C3          -0.1040     0.2140     0.1330 ca         1 94N       0.199100
      9 BR           2.7280     0.4780     0.2140 br         1 94N      -0.082100
     10 H1          -0.0030    -3.6640    -0.1510 ha         1 94N       0.143000
     11 H2           0.6370     1.9780     0.2920 ho         1 94N       0.446000
     12 H3          -2.1710    -2.4850    -0.1080 ha         1 94N       0.151000
     13 H4           2.1000    -2.3830    -0.0150 ha         1 94N       0.151000
@<TRIPOS>BOND
     1     1     3 ar  
     2     1     6 ar  
     3     1    10 1   
     4     2     8 1   
     5     2    11 1   
     6     3     4 ar  
     7     3    12 1   
     8     4     7 1   
     9     4     8 ar  
    10     5     6 ar  
    11     5     8 ar  
    12     5     9 1   
    13     6    13 1   
@<TRIPOS>SUBSTRUCTURE
     1 94N         1 TEMP              0 ****  ****    0 ROOT
