@<TRIPOS>MOLECULE
94R
   75    78     1     0     0
SMALL
abcg2


@<TRIPOS>ATOM
      1 C1          -4.7500     1.5190    -0.4610 c6         1 94R      -0.067400
      2 O1          -8.2230     0.1810    -0.6770 oh         1 94R      -0.661000
      3 C2          -6.2650     1.4830    -0.3100 c6         1 94R      -0.071400
      4 C3          -6.8170     0.1680    -0.8240 c6         1 94R       0.172300
      5 C4          -6.1720    -0.9880    -0.0640 c6         1 94R      -0.074200
      6 C5          -4.6680    -0.9420    -0.1390 c2         1 94R      -0.107400
      7 C10         -4.0050     0.3690     0.2490 c6         1 94R       0.003200
      8 C19         -4.1150     0.5420     1.7730 c3         1 94R      -0.079100
      9 C9          -2.5260     0.3840    -0.2150 c6         1 94R      -0.046700
     10 C11         -1.7480     1.6010     0.2970 c6         1 94R      -0.071400
     11 C12         -0.2810     1.6220    -0.1370 c6         1 94R      -0.062400
     12 C13          0.4460     0.3410     0.2740 c5         1 94R      -0.037000
     13 C18          0.5570     0.2390     1.8000 c3         1 94R      -0.077100
     14 C17          1.8310     0.0960    -0.3760 c5         1 94R      -0.053700
     15 C20          3.0670     0.8060     0.1960 c3         1 94R      -0.048700
     16 C22          4.3080     0.3910    -0.6050 c3         1 94R      -0.075400
     17 C23          5.6320     0.9420    -0.0610 c3         1 94R      -0.039200
     18 C24          6.8270     0.2680    -0.6910 c2         1 94R      -0.108400
     19 C28          7.2590     0.6310    -1.8970 c2         1 94R      -0.325000
     20 C25          7.5180    -0.8290     0.0870 c3         1 94R      -0.025500
     21 C27          8.3080    -0.2400     1.2580 c3         1 94R      -0.084100
     22 C26          6.5500    -1.9000     0.5880 c3         1 94R      -0.084100
     23 C21          2.9340     2.3250     0.2280 c3         1 94R      -0.086100
     24 C16          1.9760    -1.4500    -0.3310 c5         1 94R      -0.077400
     25 C15          0.5620    -2.0340    -0.1490 c5         1 94R      -0.071400
     26 C14         -0.3460    -0.8260    -0.3380 c5         1 94R      -0.064700
     27 C8          -1.7980    -0.9300     0.1020 c6         1 94R      -0.042700
     28 C7          -2.4900    -2.0910    -0.6020 c6         1 94R      -0.037200
     29 C6          -3.9780    -2.0130    -0.5300 c2         1 94R      -0.216200
     30 H1          -4.5020     1.4850    -1.5280 hc         1 94R       0.042200
     31 H2          -4.3800     2.4780    -0.0910 hc         1 94R       0.042200
     32 H3          -8.5690    -0.6460    -1.0260 ho         1 94R       0.441000
     33 H4          -6.5520     1.6150     0.7380 hc         1 94R       0.053200
     34 H5          -6.7050     2.3170    -0.8640 hc         1 94R       0.053200
     35 H6          -6.5450     0.0720    -1.8860 h1         1 94R       0.030700
     36 H7          -6.5060    -0.9330     0.9790 hc         1 94R       0.049200
     37 H8          -6.5300    -1.9450    -0.4570 hc         1 94R       0.049200
     38 H9          -5.1290     0.3610     2.1310 hc         1 94R       0.034700
     39 H10         -3.4590    -0.1550     2.2970 hc         1 94R       0.034700
     40 H11         -3.8470     1.5530     2.0820 hc         1 94R       0.034700
     41 H12         -2.5470     0.4600    -1.3140 hc         1 94R       0.045700
     42 H13         -2.2240     2.5190    -0.0550 hc         1 94R       0.039700
     43 H14         -1.7920     1.6420     1.3880 hc         1 94R       0.039700
     44 H15         -0.2210     1.7240    -1.2270 hc         1 94R       0.040200
     45 H16          0.1920     2.5110     0.2820 hc         1 94R       0.040200
     46 H17         -0.4110     0.1300     2.2880 hc         1 94R       0.032367
     47 H18          1.1690    -0.6080     2.1140 hc         1 94R       0.032367
     48 H19          1.0210     1.1370     2.2140 hc         1 94R       0.032367
     49 H20          1.7380     0.4050    -1.4280 hc         1 94R       0.044700
     50 H21          3.2150     0.4530     1.2260 hc         1 94R       0.045700
     51 H22          4.3730    -0.6990    -0.6260 hc         1 94R       0.041200
     52 H23          4.1890     0.7030    -1.6490 hc         1 94R       0.041200
     53 H24          5.6920     2.0170    -0.2400 hc         1 94R       0.044200
     54 H25          5.6490     0.8130     1.0260 hc         1 94R       0.044200
     55 H26          8.0940     0.1340    -2.3770 ha         1 94R       0.161500
     56 H27          6.7950     1.4400    -2.4500 ha         1 94R       0.161500
     57 H28          8.2330    -1.3110    -0.5870 hc         1 94R       0.047700
     58 H29          7.6550     0.2750     1.9650 hc         1 94R       0.033533
     59 H30          8.8230    -1.0290     1.8080 hc         1 94R       0.033533
     60 H31          9.0570     0.4740     0.9130 hc         1 94R       0.033533
     61 H32          6.0140    -2.3770    -0.2340 hc         1 94R       0.033533
     62 H33          7.0920    -2.6760     1.1300 hc         1 94R       0.033533
     63 H34          5.8080    -1.4830     1.2720 hc         1 94R       0.033533
     64 H35          2.1480     2.6540     0.9050 hc         1 94R       0.032700
     65 H36          3.8560     2.8000     0.5670 hc         1 94R       0.032700
     66 H37          2.7050     2.7220    -0.7640 hc         1 94R       0.032700
     67 H38          2.4490    -1.8240    -1.2400 hc         1 94R       0.040700
     68 H39          2.6290    -1.7480     0.4950 hc         1 94R       0.040700
     69 H40          0.3500    -2.8340    -0.8610 hc         1 94R       0.041700
     70 H41          0.4360    -2.4610     0.8500 hc         1 94R       0.041700
     71 H42         -0.3770    -0.6210    -1.4200 hc         1 94R       0.042700
     72 H43         -1.8450    -1.1120     1.1840 hc         1 94R       0.054700
     73 H44         -2.1810    -2.1240    -1.6560 hc         1 94R       0.046700
     74 H45         -2.1560    -3.0430    -0.1770 hc         1 94R       0.046700
     75 H46         -4.5260    -2.9060    -0.8200 ha         1 94R       0.168000
@<TRIPOS>BOND
     1     1     3 1   
     2     1     7 1   
     3     1    30 1   
     4     1    31 1   
     5     2     4 1   
     6     2    32 1   
     7     3     4 1   
     8     3    33 1   
     9     3    34 1   
    10     4     5 1   
    11     4    35 1   
    12     5     6 1   
    13     5    36 1   
    14     5    37 1   
    15     6     7 1   
    16     6    29 2   
    17     7     8 1   
    18     7     9 1   
    19     8    38 1   
    20     8    39 1   
    21     8    40 1   
    22     9    10 1   
    23     9    27 1   
    24     9    41 1   
    25    10    11 1   
    26    10    42 1   
    27    10    43 1   
    28    11    12 1   
    29    11    44 1   
    30    11    45 1   
    31    12    13 1   
    32    12    14 1   
    33    12    26 1   
    34    13    46 1   
    35    13    47 1   
    36    13    48 1   
    37    14    15 1   
    38    14    24 1   
    39    14    49 1   
    40    15    16 1   
    41    15    23 1   
    42    15    50 1   
    43    16    17 1   
    44    16    51 1   
    45    16    52 1   
    46    17    18 1   
    47    17    53 1   
    48    17    54 1   
    49    18    19 2   
    50    18    20 1   
    51    19    55 1   
    52    19    56 1   
    53    20    21 1   
    54    20    22 1   
    55    20    57 1   
    56    21    58 1   
    57    21    59 1   
    58    21    60 1   
    59    22    61 1   
    60    22    62 1   
    61    22    63 1   
    62    23    64 1   
    63    23    65 1   
    64    23    66 1   
    65    24    25 1   
    66    24    67 1   
    67    24    68 1   
    68    25    26 1   
    69    25    69 1   
    70    25    70 1   
    71    26    27 1   
    72    26    71 1   
    73    27    28 1   
    74    27    72 1   
    75    28    29 1   
    76    28    73 1   
    77    28    74 1   
    78    29    75 1   
@<TRIPOS>SUBSTRUCTURE
     1 94R         1 TEMP              0 ****  ****    0 ROOT
