@<TRIPOS>MOLECULE
94R
   75    78     1     0     0
SMALL
No Charge or Current Charge


@<TRIPOS>ATOM
      1 C1          -4.8400     1.5940    -0.4480 c6         1 94R      -0.067400
      2 O1          -8.3400     0.1800    -0.9000 oh         1 94R      -0.661000
      3 C2          -6.3850     1.5340    -0.3690 c6         1 94R      -0.071400
      4 C3          -6.9120     0.2220    -0.9860 c6         1 94R       0.172300
      5 C4          -6.2960    -0.9930    -0.2580 c6         1 94R      -0.074200
      6 C5          -4.7640    -0.9490    -0.2380 c2         1 94R      -0.107400
      7 C10         -4.1140     0.3760     0.2270 c6         1 94R       0.003200
      8 C19         -4.2980     0.4410     1.7840 c3         1 94R      -0.079100
      9 C9          -2.5810     0.4080    -0.1870 c6         1 94R      -0.046700
     10 C11         -1.7970     1.6450     0.3820 c6         1 94R      -0.071400
     11 C12         -0.2920     1.6500    -0.0080 c6         1 94R      -0.062400
     12 C13          0.4340     0.3340     0.4220 c5         1 94R      -0.037000
     13 C18          0.5170     0.2820     1.9880 c3         1 94R      -0.077100
     14 C17          1.8320     0.0610    -0.2670 c5         1 94R      -0.053700
     15 C20          3.1030     0.8530     0.2110 c3         1 94R      -0.048700
     16 C22          4.3940     0.4170    -0.5920 c3         1 94R      -0.075400
     17 C23          5.7920     0.9510    -0.1150 c3         1 94R      -0.039200
     18 C24          6.9590     0.2600    -0.8140 c2         1 94R      -0.108400
     19 C28          7.3440     0.6130    -2.0510 c2         1 94R      -0.325000
     20 C25          7.6810    -0.8270    -0.0120 c3         1 94R      -0.025500
     21 C27          8.5180    -0.2330     1.1450 c3         1 94R      -0.084100
     22 C26          6.7450    -1.9580     0.4740 c3         1 94R      -0.084100
     23 C21          2.9400     2.3930     0.1740 c3         1 94R      -0.086100
     24 C16          1.9900    -1.5170    -0.0900 c5         1 94R      -0.077400
     25 C15          0.5420    -2.0730     0.0850 c5         1 94R      -0.071400
     26 C14         -0.3480    -0.8470    -0.2390 c5         1 94R      -0.064700
     27 C8          -1.8530    -0.9340     0.1550 c6         1 94R      -0.042700
     28 C7          -2.5370    -2.1190    -0.5790 c6         1 94R      -0.037200
     29 C6          -4.0530    -2.0390    -0.5800 c2         1 94R      -0.216200
     30 H1          -4.5550     1.6510    -1.5080 hc         1 94R       0.042200
     31 H2          -4.5080     2.5380     0.0040 hc         1 94R       0.042200
     32 H3          -8.6240    -0.6420    -1.3570 ho         1 94R       0.441000
     33 H4          -6.7200     1.6270     0.6730 hc         1 94R       0.053200
     34 H5          -6.8110     2.3910    -0.9070 hc         1 94R       0.053200
     35 H6          -6.6030     0.1880    -2.0420 h1         1 94R       0.030700
     36 H7          -6.6720    -1.0320     0.7730 hc         1 94R       0.049200
     37 H8          -6.6440    -1.9180    -0.7360 hc         1 94R       0.049200
     38 H9          -5.3470     0.3380     2.0800 hc         1 94R       0.034700
     39 H10         -3.7520    -0.3590     2.2960 hc         1 94R       0.034700
     40 H11         -3.9590     1.3960     2.2000 hc         1 94R       0.034700
     41 H12         -2.5460     0.5000    -1.2820 hc         1 94R       0.045700
     42 H13         -2.2440     2.5760     0.0110 hc         1 94R       0.039700
     43 H14         -1.8780     1.6910     1.4740 hc         1 94R       0.039700
     44 H15         -0.2040     1.7850    -1.0950 hc         1 94R       0.040200
     45 H16          0.1730     2.5310     0.4460 hc         1 94R       0.040200
     46 H17         -0.4680     0.2070     2.4580 hc         1 94R       0.032367
     47 H18          1.1050    -0.5670     2.3530 hc         1 94R       0.032367
     48 H19          0.9940     1.1860     2.3850 hc         1 94R       0.032367
     49 H20          1.7480     0.2850    -1.3380 hc         1 94R       0.044700
     50 H21          3.2900     0.5870     1.2590 hc         1 94R       0.045700
     51 H22          4.4530    -0.6760    -0.5840 hc         1 94R       0.041200
     52 H23          4.2610     0.6940    -1.6450 hc         1 94R       0.041200
     53 H24          5.8440     2.0250    -0.3250 hc         1 94R       0.044200
     54 H25          5.8630     0.8570     0.9750 hc         1 94R       0.044200
     55 H26          8.1860     0.1330    -2.5520 ha         1 94R       0.161500
     56 H27          6.8290     1.3960    -2.6080 ha         1 94R       0.161500
     57 H28          8.4050    -1.3090    -0.6810 hc         1 94R       0.047700
     58 H29          7.8780     0.2100     1.9170 hc         1 94R       0.033533
     59 H30          9.1280    -1.0120     1.6170 hc         1 94R       0.033533
     60 H31          9.1930     0.5450     0.7690 hc         1 94R       0.033533
     61 H32          6.1970    -2.3930    -0.3700 hc         1 94R       0.033533
     62 H33          7.3250    -2.7590     0.9480 hc         1 94R       0.033533
     63 H34          6.0180    -1.5890     1.2080 hc         1 94R       0.033533
     64 H35          2.2570     2.7310     0.9590 hc         1 94R       0.032700
     65 H36          3.8880     2.9060     0.3640 hc         1 94R       0.032700
     66 H37          2.5610     2.7270    -0.7990 hc         1 94R       0.032700
     67 H38          2.5030    -2.0350    -0.9240 hc         1 94R       0.040700
     68 H39          2.5840    -1.7470     0.8020 hc         1 94R       0.040700
     69 H40          0.3440    -2.9120    -0.5920 hc         1 94R       0.041700
     70 H41          0.3730    -2.4430     1.1020 hc         1 94R       0.041700
     71 H42         -0.3680    -0.7090    -1.3290 hc         1 94R       0.042700
     72 H43         -1.9210    -1.1180     1.2340 hc         1 94R       0.054700
     73 H44         -2.1990    -2.1650    -1.6230 hc         1 94R       0.046700
     74 H45         -2.2250    -3.0640    -0.1140 hc         1 94R       0.046700
     75 H46         -4.5610    -2.9540    -0.8870 ha         1 94R       0.168000
@<TRIPOS>BOND
     1     1     3 1   
     2     1     7 1   
     3     1    30 1   
     4     1    31 1   
     5     2     4 1   
     6     2    32 1   
     7     3     4 1   
     8     3    33 1   
     9     3    34 1   
    10     4     5 1   
    11     4    35 1   
    12     5     6 1   
    13     5    36 1   
    14     5    37 1   
    15     6     7 1   
    16     6    29 2   
    17     7     8 1   
    18     7     9 1   
    19     8    38 1   
    20     8    39 1   
    21     8    40 1   
    22     9    10 1   
    23     9    27 1   
    24     9    41 1   
    25    10    11 1   
    26    10    42 1   
    27    10    43 1   
    28    11    12 1   
    29    11    44 1   
    30    11    45 1   
    31    12    13 1   
    32    12    14 1   
    33    12    26 1   
    34    13    46 1   
    35    13    47 1   
    36    13    48 1   
    37    14    15 1   
    38    14    24 1   
    39    14    49 1   
    40    15    16 1   
    41    15    23 1   
    42    15    50 1   
    43    16    17 1   
    44    16    51 1   
    45    16    52 1   
    46    17    18 1   
    47    17    53 1   
    48    17    54 1   
    49    18    19 2   
    50    18    20 1   
    51    19    55 1   
    52    19    56 1   
    53    20    21 1   
    54    20    22 1   
    55    20    57 1   
    56    21    58 1   
    57    21    59 1   
    58    21    60 1   
    59    22    61 1   
    60    22    62 1   
    61    22    63 1   
    62    23    64 1   
    63    23    65 1   
    64    23    66 1   
    65    24    25 1   
    66    24    67 1   
    67    24    68 1   
    68    25    26 1   
    69    25    69 1   
    70    25    70 1   
    71    26    27 1   
    72    26    71 1   
    73    27    28 1   
    74    27    72 1   
    75    28    29 1   
    76    28    73 1   
    77    28    74 1   
    78    29    75 1   
@<TRIPOS>SUBSTRUCTURE
     1 94R         1 TEMP              0 ****  ****    0 ROOT
