@<TRIPOS>MOLECULE
94S
   43    44     1     0     0
SMALL
abcg2


@<TRIPOS>ATOM
      1 C5          -0.0740     1.6540     0.1180 c          1 94S       0.684100
      2 C8          -4.1290    -0.5230    -1.3450 cc         1 94S      -0.211900
      3 C9           2.9980     1.3270     1.0240 ca         1 94S      -0.345500
      4 C10          4.2690    -0.5040     0.0990 ca         1 94S      -0.128300
      5 C2          -2.0810     0.6400    -0.8400 cc         1 94S       0.593300
      6 C11         -3.5830    -0.7880    -0.1360 cd         1 94S       0.355900
      7 C15          4.2500    -1.1090     1.3730 ca         1 94S       0.208100
      8 C12          3.6490     0.7200    -0.0480 ca         1 94S       0.014000
      9 C17          4.9160    -1.1770    -1.0770 c3         1 94S      -0.018100
     10 C18          2.9670     0.7260     2.2680 ca         1 94S       0.058000
     11 C19          3.6040    -0.4910     2.4430 ca         1 94S      -0.227000
     12 C22          4.0860    -2.3270    -1.6710 c3         1 94S      -0.058700
     13 C24          2.7160    -1.8490    -2.1390 c3         1 94S      -0.088600
     14 C25          4.8490    -2.9780    -2.8190 c3         1 94S      -0.088600
     15 N3           0.9280     2.5290    -0.2440 ns         1 94S      -0.598300
     16 N6          -0.9710     1.4470    -0.9040 ns         1 94S      -0.486400
     17 N7          -2.4210    -0.1260     0.1390 nd         1 94S      -0.656000
     18 O13          1.7210     3.3790     2.0300 o          1 94S      -0.526500
     19 O14          3.0640     3.7190    -0.0610 o          1 94S      -0.526500
     20 O16         -0.1270     1.1410     1.2070 o          1 94S      -0.531100
     21 O21          4.8800    -2.2830     1.4710 os         1 94S      -0.334100
     22 S1           2.2220     2.8770     0.7690 sy         1 94S       1.204300
     23 S4          -3.1610     0.6210    -2.2050 ss         1 94S      -0.050400
     24 H1          -3.9980    -1.4700     0.5920 h4         1 94S       0.057100
     25 H2           3.6640     1.1930    -1.0230 ha         1 94S       0.123000
     26 H3           5.0790    -0.4260    -1.8570 hc         1 94S       0.050200
     27 H4           5.9040    -1.5540    -0.8000 hc         1 94S       0.050200
     28 H5           2.4610     1.1880     3.1040 ha         1 94S       0.148000
     29 H6           3.5850    -0.9460     3.4240 ha         1 94S       0.126000
     30 H7           3.9400    -3.0810    -0.8910 hc         1 94S       0.056700
     31 H8           5.4640    -3.8730     2.5560 h1         1 94S       0.047700
     32 H9           5.4060    -2.3650     3.4870 h1         1 94S       0.047700
     33 H10          3.9000    -3.2090     3.0610 h1         1 94S       0.047700
     34 H11          2.1440    -2.6710    -2.5740 hc         1 94S       0.032533
     35 H12          2.1240    -1.4350    -1.3210 hc         1 94S       0.032533
     36 H13          2.8140    -1.0730    -2.9020 hc         1 94S       0.032533
     37 H14          5.8340    -3.3240    -2.5020 hc         1 94S       0.032533
     38 H15          4.3050    -3.8390    -3.2100 hc         1 94S       0.032533
     39 H16          4.9910    -2.2750    -3.6430 hc         1 94S       0.032533
     40 H17          0.9950     2.9170    -1.1780 hn         1 94S       0.341500
     41 H18         -0.8270     1.9500    -1.7670 hn         1 94S       0.333500
     42 BR2         -5.6780    -1.2190    -2.0830 br         1 94S      -0.011100
     43 C23          4.9050    -2.9560     2.7170 c3         1 94S       0.144900
@<TRIPOS>BOND
     1     1    15 1   
     2     1    16 1   
     3     1    20 2   
     4     2     6 2   
     5     2    23 1   
     6     2    42 1   
     7     3     8 ar  
     8     3    10 ar  
     9     3    22 1   
    10     4     7 ar  
    11     4     8 ar  
    12     4     9 1   
    13     5    16 1   
    14     5    17 2   
    15     5    23 1   
    16     6    17 1   
    17     6    24 1   
    18     7    11 ar  
    19     7    21 1   
    20     8    25 1   
    21     9    12 1   
    22     9    26 1   
    23     9    27 1   
    24    10    11 ar  
    25    10    28 1   
    26    11    29 1   
    27    12    13 1   
    28    12    14 1   
    29    12    30 1   
    30    13    34 1   
    31    13    35 1   
    32    13    36 1   
    33    14    37 1   
    34    14    38 1   
    35    14    39 1   
    36    15    22 1   
    37    15    40 1   
    38    16    41 1   
    39    18    22 2   
    40    19    22 2   
    41    21    43 1   
    42    31    43 1   
    43    32    43 1   
    44    33    43 1   
@<TRIPOS>SUBSTRUCTURE
     1 94S         1 TEMP              0 ****  ****    0 ROOT
