@<TRIPOS>MOLECULE
94S
   43    44     1     0     0
SMALL
No Charge or Current Charge


@<TRIPOS>ATOM
      1 C5          -0.2630     1.6620     0.1990 c          1 94S       0.684100
      2 C8          -4.5160    -0.3220    -1.0670 cc         1 94S      -0.211900
      3 C9           2.9730     1.3000     0.8740 ca         1 94S      -0.345500
      4 C10          4.3720    -0.5410     0.0800 ca         1 94S      -0.128300
      5 C2          -2.4000     0.7670    -0.6720 cc         1 94S       0.593300
      6 C11         -3.9890    -0.5340     0.1850 cd         1 94S       0.355900
      7 C15          4.2550    -1.1670     1.3410 ca         1 94S       0.208100
      8 C12          3.7310     0.6930    -0.1450 ca         1 94S       0.014000
      9 C17          5.1750    -1.1830    -1.0530 c3         1 94S      -0.018100
     10 C18          2.8510     0.6730     2.1270 ca         1 94S       0.058000
     11 C19          3.4930    -0.5540     2.3590 ca         1 94S      -0.227000
     12 C22          4.4120    -2.3240    -1.7790 c3         1 94S      -0.058700
     13 C24          3.0950    -1.8340    -2.4260 c3         1 94S      -0.088600
     14 C25          5.3140    -3.0260    -2.8190 c3         1 94S      -0.088600
     15 N3           0.7440     2.4390    -0.2590 ns         1 94S      -0.598300
     16 N6          -1.2330     1.4890    -0.7480 ns         1 94S      -0.486400
     17 N7          -2.7700     0.0940     0.4070 nd         1 94S      -0.656000
     18 O13          1.7160     3.4420     1.8390 o          1 94S      -0.526500
     19 O14          2.9250     3.6310    -0.4100 o          1 94S      -0.526500
     20 O16         -0.2820     1.1840     1.3180 o          1 94S      -0.531100
     21 O21          4.8960    -2.3760     1.5410 os         1 94S      -0.334100
     22 S1           2.1380     2.8620     0.5590 sy         1 94S       1.204300
     23 S4          -3.4940     0.6910    -2.0340 ss         1 94S      -0.050400
     24 H1          -4.4390    -1.1310     0.9690 h4         1 94S       0.057100
     25 H2           3.8170     1.1720    -1.1200 ha         1 94S       0.123000
     26 H3           5.4660    -0.4240    -1.7900 hc         1 94S       0.050200
     27 H4           6.1180    -1.5790    -0.6550 hc         1 94S       0.050200
     28 H5           2.2590     1.1240     2.9230 ha         1 94S       0.148000
     29 H6           3.3820    -1.0130     3.3360 ha         1 94S       0.126000
     30 H7           4.1450    -3.0770    -1.0270 hc         1 94S       0.056700
     31 H8           5.4010    -4.0250     2.7210 h1         1 94S       0.047700
     32 H9           5.2360    -2.4950     3.6070 h1         1 94S       0.047700
     33 H10          3.7850    -3.3560     3.0250 h1         1 94S       0.047700
     34 H11          2.5860    -2.6600    -2.9380 hc         1 94S       0.032533
     35 H12          2.4070    -1.4380    -1.6700 hc         1 94S       0.032533
     36 H13          3.2910    -1.0450    -3.1620 hc         1 94S       0.032533
     37 H14          6.2190    -3.4230    -2.3430 hc         1 94S       0.032533
     38 H15          4.7850    -3.8650    -3.2880 hc         1 94S       0.032533
     39 H16          5.6190    -2.3280    -3.6080 hc         1 94S       0.032533
     40 H17          0.7440     2.8000    -1.1960 hn         1 94S       0.341500
     41 H18         -1.0640     1.9580    -1.6230 hn         1 94S       0.333500
     42 Br2         -6.1430    -1.0110    -1.7240 br         1 94S      -0.011100
     43 C23          4.8230    -3.0940     2.7850 c3         1 94S       0.144900
@<TRIPOS>BOND
     1     1    15 1   
     2     1    16 1   
     3     1    20 2   
     4     2     6 2   
     5     2    23 1   
     6     2    42 1   
     7     3     8 ar  
     8     3    10 ar  
     9     3    22 1   
    10     4     7 ar  
    11     4     8 ar  
    12     4     9 1   
    13     5    16 1   
    14     5    17 2   
    15     5    23 1   
    16     6    17 1   
    17     6    24 1   
    18     7    11 ar  
    19     7    21 1   
    20     8    25 1   
    21     9    12 1   
    22     9    26 1   
    23     9    27 1   
    24    10    11 ar  
    25    10    28 1   
    26    11    29 1   
    27    12    13 1   
    28    12    14 1   
    29    12    30 1   
    30    13    34 1   
    31    13    35 1   
    32    13    36 1   
    33    14    37 1   
    34    14    38 1   
    35    14    39 1   
    36    15    22 1   
    37    15    40 1   
    38    16    41 1   
    39    18    22 2   
    40    19    22 2   
    41    21    43 1   
    42    31    43 1   
    43    32    43 1   
    44    33    43 1   
@<TRIPOS>SUBSTRUCTURE
     1 94S         1 TEMP              0 ****  ****    0 ROOT
