@<TRIPOS>MOLECULE
94T
   46    47     1     0     0
SMALL
No Charge or Current Charge


@<TRIPOS>ATOM
      1 C2          -2.9510     1.9020     1.0710 c          1 94T       0.623000
      2 C4          -1.7790     3.7560     0.0030 c          1 94T       0.591200
      3 C5          -0.8310     2.7730    -0.5140 cc         1 94T      -0.392200
      4 C6          -0.9320     1.4320    -0.2220 cd         1 94T       0.026600
      5 N1          -1.9880     0.9990     0.5850 n          1 94T      -0.311000
      6 O2          -3.9250     1.5440     1.7140 o          1 94T      -0.585000
      7 N3          -2.7660     3.2110     0.7570 ns         1 94T      -0.475500
      8 O4          -1.7120     4.9520    -0.2150 o          1 94T      -0.564000
      9 C1          -2.1120    -0.4210     1.0030 c5         1 94T       0.338700
     10 O6          -0.8650    -1.1400     0.8640 os         1 94T      -0.412000
     11 C7          -3.1120    -1.1080     0.0140 c5         1 94T       0.067300
     12 O1          -4.5070    -0.8920     0.3250 oh         1 94T      -0.708000
     13 C3          -2.6870    -2.5880     0.2340 c5         1 94T       0.101300
     14 O3          -3.1940    -3.0850     1.4830 oh         1 94T      -0.710000
     15 C8          -1.1270    -2.4230     0.2210 c5         1 94T       0.156300
     16 C9          -0.5300    -2.4670    -1.2300 c3         1 94T       0.216600
     17 O5           0.6950    -1.7180    -1.3680 os         1 94T      -0.558400
     18 PCS          2.0830    -2.1900    -0.6860 p5         1 94T       1.451800
     19 OCT          1.8450    -3.3030     0.2810 o          1 94T      -0.848500
     20 OCU          3.0360    -2.5760    -1.7710 o          1 94T      -0.848500
     21 OCV          2.4040    -0.8220     0.0350 os         1 94T      -0.687800
     22 PCW          3.9280    -0.6980     0.4330 p5         1 94T       1.460800
     23 OCX          4.4590    -1.8660     1.1980 o          1 94T      -0.853500
     24 OCY          4.8240    -0.3130    -0.7010 o          1 94T      -0.853500
     25 OCZ          3.7720     0.5440     1.4580 os         1 94T      -0.584400
     26 CBF          3.8910     1.9190     1.0540 c3         1 94T       0.228600
     27 CBG          2.8200     2.3050     0.0030 c3         1 94T      -0.088400
     28 CBH          2.8440     3.8110    -0.3340 c3         1 94T      -0.085100
     29 H1          -0.0370     3.1710    -1.1350 ha         1 94T       0.244000
     30 H2          -0.2410     0.6620    -0.5670 h4         1 94T       0.261000
     31 H3          -3.4560     3.8520     1.1190 hn         1 94T       0.320500
     32 H4          -2.4610    -0.4640     2.0440 h2         1 94T       0.102700
     33 H5          -2.9020    -0.7930    -1.0190 h1         1 94T       0.064700
     34 H6          -4.5750     0.0070     0.7410 ho         1 94T       0.500000
     35 H7          -3.0280    -3.2280    -0.5930 h1         1 94T       0.054700
     36 H8          -4.1110    -2.7210     1.5400 ho         1 94T       0.501000
     37 H9          -0.6520    -3.2180     0.8110 h1         1 94T       0.101700
     38 H10         -0.3700    -3.5170    -1.5100 h1         1 94T       0.010700
     39 H11         -1.2700    -2.0660    -1.9330 h1         1 94T       0.010700
     40 H14          3.7700     2.5670     1.9330 h1         1 94T       0.006700
     41 H15          4.8920     2.1140     0.6410 h1         1 94T       0.006700
     42 H16          2.9760     1.7420    -0.9260 hc         1 94T       0.040700
     43 H17          1.8280     2.0380     0.3890 hc         1 94T       0.040700
     44 H18          2.1120     4.0430    -1.1170 hc         1 94T       0.011367
     45 H19          2.6050     4.4100     0.5540 hc         1 94T       0.011367
     46 H20          3.8360     4.1110    -0.6990 hc         1 94T       0.011367
@<TRIPOS>BOND
     1     1     5 1   
     2     1     6 2   
     3     1     7 1   
     4     2     3 1   
     5     2     7 1   
     6     2     8 2   
     7     3     4 2   
     8     3    29 1   
     9     4     5 1   
    10     4    30 1   
    11     5     9 1   
    12     7    31 1   
    13     9    10 1   
    14     9    11 1   
    15     9    32 1   
    16    10    15 1   
    17    11    12 1   
    18    11    13 1   
    19    11    33 1   
    20    12    34 1   
    21    13    14 1   
    22    13    15 1   
    23    13    35 1   
    24    14    36 1   
    25    15    16 1   
    26    15    37 1   
    27    16    17 1   
    28    16    38 1   
    29    16    39 1   
    30    17    18 1   
    31    18    19 1   
    32    18    20 1   
    33    18    21 1   
    34    21    22 1   
    35    22    23 1   
    36    22    24 1   
    37    22    25 1   
    38    25    26 1   
    39    26    27 1   
    40    26    40 1   
    41    26    41 1   
    42    27    28 1   
    43    27    42 1   
    44    27    43 1   
    45    28    44 1   
    46    28    45 1   
    47    28    46 1   
@<TRIPOS>SUBSTRUCTURE
     1 94T         1 TEMP              0 ****  ****    0 ROOT
