@<TRIPOS>MOLECULE
94T
   46    47     1     0     0
SMALL
abcg2


@<TRIPOS>ATOM
      1 C2          -4.4200     1.6230     0.5850 c          1 94T       0.623000
      2 C4          -3.5180     3.1960    -1.1070 c          1 94T       0.591200
      3 C5          -2.5030     2.2130    -1.3930 cc         1 94T      -0.392200
      4 C6          -2.4970     1.0540    -0.7180 cd         1 94T       0.026600
      5 N1          -3.4160     0.7390     0.2440 n          1 94T      -0.311000
      6 O2          -5.2580     1.3900     1.4310 o          1 94T      -0.585000
      7 N3          -4.4010     2.8020    -0.1140 ns         1 94T      -0.475500
      8 O4          -3.6380     4.2800    -1.6470 o          1 94T      -0.564000
      9 C1          -3.3570    -0.5580     0.9090 c5         1 94T       0.338700
     10 O6          -2.0370    -0.8240     1.2800 os         1 94T      -0.412000
     11 C7          -3.7870    -1.7230     0.0180 c5         1 94T       0.067300
     12 O1          -5.1750    -1.8620     0.0530 oh         1 94T      -0.708000
     13 C3          -3.0020    -2.8790     0.6460 c5         1 94T       0.101300
     14 O3          -3.6130    -3.3150     1.8310 oh         1 94T      -0.710000
     15 C8          -1.6920    -2.1850     0.9900 c5         1 94T       0.156300
     16 C9          -0.6900    -2.2630    -0.1470 c3         1 94T       0.216600
     17 O5           0.3810    -1.3980     0.1370 os         1 94T      -0.558400
     18 PCS          1.8080    -1.6900    -0.6390 p5         1 94T       1.451800
     19 OCT          2.5020    -2.8270     0.0420 o          1 94T      -0.848500
     20 OCU          1.5790    -1.7190    -2.1180 o          1 94T      -0.848500
     21 OCV          2.4680    -0.2640    -0.1740 os         1 94T      -0.687800
     22 PCW          3.6840     0.4810    -0.9900 p5         1 94T       1.460800
     23 OCX          4.6850    -0.5300    -1.4530 o          1 94T      -0.853500
     24 OCY          3.1280     1.4860    -1.9490 o          1 94T      -0.853500
     25 OCZ          4.2420     1.2540     0.3490 os         1 94T      -0.584400
     26 CBF          5.2330     2.2520     0.1700 c3         1 94T       0.228600
     27 CBG          5.7060     2.7330     1.5280 c3         1 94T      -0.088400
     28 CBH          6.7650     3.8200     1.4020 c3         1 94T      -0.085100
     29 H1          -1.7510     2.4160    -2.1390 ha         1 94T       0.244000
     30 H2          -1.7310     0.3140    -0.9000 h4         1 94T       0.261000
     31 H3          -5.1320     3.4580     0.1330 hn         1 94T       0.320500
     32 H4          -4.0090    -0.4930     1.7820 h2         1 94T       0.102700
     33 H5          -3.4250    -1.5600    -1.0060 h1         1 94T       0.064700
     34 H6          -5.4550    -2.3740    -0.7120 ho         1 94T       0.500000
     35 H7          -2.8530    -3.7030    -0.0650 h1         1 94T       0.054700
     36 H8          -4.5520    -3.4400     1.6520 ho         1 94T       0.501000
     37 H9          -1.2420    -2.6140     1.8900 h1         1 94T       0.101700
     38 H10         -0.3740    -3.3100    -0.2310 h1         1 94T       0.010700
     39 H11         -1.1570    -1.9970    -1.1040 h1         1 94T       0.010700
     40 H14          6.0880     1.8590    -0.3950 h1         1 94T       0.006700
     41 H15          4.8320     3.0970    -0.4020 h1         1 94T       0.006700
     42 H16          4.8510     3.1140     2.0940 hc         1 94T       0.040700
     43 H17          6.1070     1.8880     2.0930 hc         1 94T       0.040700
     44 H18          7.0960     4.1600     2.3830 hc         1 94T       0.011367
     45 H19          7.6440     3.4600     0.8650 hc         1 94T       0.011367
     46 H20          6.3830     4.6890     0.8640 hc         1 94T       0.011367
@<TRIPOS>BOND
     1     1     5 1   
     2     1     6 2   
     3     1     7 1   
     4     2     3 1   
     5     2     7 1   
     6     2     8 2   
     7     3     4 2   
     8     3    29 1   
     9     4     5 1   
    10     4    30 1   
    11     5     9 1   
    12     7    31 1   
    13     9    10 1   
    14     9    11 1   
    15     9    32 1   
    16    10    15 1   
    17    11    12 1   
    18    11    13 1   
    19    11    33 1   
    20    12    34 1   
    21    13    14 1   
    22    13    15 1   
    23    13    35 1   
    24    14    36 1   
    25    15    16 1   
    26    15    37 1   
    27    16    17 1   
    28    16    38 1   
    29    16    39 1   
    30    17    18 1   
    31    18    19 1   
    32    18    20 1   
    33    18    21 1   
    34    21    22 1   
    35    22    23 1   
    36    22    24 1   
    37    22    25 1   
    38    25    26 1   
    39    26    27 1   
    40    26    40 1   
    41    26    41 1   
    42    27    28 1   
    43    27    42 1   
    44    27    43 1   
    45    28    44 1   
    46    28    45 1   
    47    28    46 1   
@<TRIPOS>SUBSTRUCTURE
     1 94T         1 TEMP              0 ****  ****    0 ROOT
