@<TRIPOS>MOLECULE
94U
   40    42     1     0     0
SMALL
No Charge or Current Charge


@<TRIPOS>ATOM
      1 C10          2.7160    -0.3540     0.1610 cc         1 94U      -0.218600
      2 C13          4.9460    -0.2520     0.1680 cd         1 94U      -0.251000
      3 C20         -6.6820    -2.0740     0.7560 c3         1 94U      -0.116600
      4 C21         -6.1280     1.1450     0.4800 c3         1 94U       0.231300
      5 C22         -6.6690     1.9940    -0.6860 c3         1 94U      -0.116600
      6 C01         -3.9240    -0.0400     0.0590 ca         1 94U       0.344000
      7 C02         -3.1970     1.1520    -0.1270 ca         1 94U      -0.180000
      8 C03         -1.7920     1.1530    -0.1160 ca         1 94U      -0.078500
      9 C04         -1.0750    -0.0400     0.0820 ca         1 94U      -0.101000
     10 C05         -1.7930    -1.2390     0.2710 ca         1 94U      -0.078500
     11 C06         -3.2000    -1.2330     0.2580 ca         1 94U      -0.180000
     12 N07          0.3490     0.0370     0.0820 ns         1 94U      -0.147000
     13 C08          1.3420    -0.9260     0.2290 c          1 94U       0.638700
     14 O09          1.1310    -2.1220     0.3960 o          1 94U      -0.570100
     15 N11          3.1700     0.9850    -0.0240 na         1 94U      -0.248500
     16 C12          4.5500     1.0030    -0.0130 cc         1 94U       0.321500
     17 C14          3.8570    -1.1300     0.2820 cd         1 94U      -0.049000
     18 S15          6.6770    -0.3950     0.2050 ss         1 94U      -0.020400
     19 C16          6.6830     1.3800    -0.0460 cd         1 94U       0.446300
     20 N17          5.4840     1.9800    -0.1420 nc         1 94U      -0.626000
     21 C19         -6.1200    -1.2260    -0.4010 c3         1 94U       0.231300
     22 H202        -7.2100    -2.9500     0.3590 hc         1 94U       0.040867
     23 H201        -5.8790    -2.4260     1.4120 hc         1 94U       0.040867
     24 H203        -7.3910    -1.4940     1.3570 hc         1 94U       0.040867
     25 H211        -5.5110     1.7840     1.1270 h1         1 94U       0.045450
     26 H212        -6.9770     0.8240     1.0990 h1         1 94U       0.045450
     27 H221        -5.8540     2.3450    -1.3280 hc         1 94U       0.040867
     28 H223        -7.3670     1.4130    -1.3000 hc         1 94U       0.040867
     29 H222        -7.2040     2.8690    -0.2990 hc         1 94U       0.040867
     30 H021        -3.7140     2.0910    -0.2940 ha         1 94U       0.114000
     31 H031        -1.2590     2.0900    -0.2650 ha         1 94U       0.117000
     32 H051        -1.2870    -2.1850     0.4330 ha         1 94U       0.117000
     33 H061        -3.7210    -2.1710     0.4160 ha         1 94U       0.114000
     34 H071         0.7030     0.9740    -0.0500 hn         1 94U       0.144000
     35 H111         2.5990     1.8130    -0.1460 hn         1 94U       0.363000
     36 H141         3.9010    -2.2060     0.4350 ha         1 94U       0.160000
     37 H161         7.6320     1.8980    -0.1100 h5         1 94U       0.052100
     38 H192        -5.4920    -1.8650    -1.0370 h1         1 94U       0.045450
     39 H191        -6.9580    -0.9050    -1.0340 h1         1 94U       0.045450
     40 N18         -5.3480    -0.0400     0.0470 nh         1 94U      -0.839400
@<TRIPOS>BOND
     1     1    13 1   
     2     1    15 1   
     3     1    17 2   
     4     2    16 2   
     5     2    17 1   
     6     2    18 1   
     7     3    21 1   
     8     3    22 1   
     9     3    23 1   
    10     3    24 1   
    11     4     5 1   
    12     4    25 1   
    13     4    26 1   
    14     4    40 1   
    15     5    27 1   
    16     5    28 1   
    17     5    29 1   
    18     6     7 ar  
    19     6    11 ar  
    20     6    40 1   
    21     7     8 ar  
    22     7    30 1   
    23     8     9 ar  
    24     8    31 1   
    25     9    10 ar  
    26     9    12 1   
    27    10    11 ar  
    28    10    32 1   
    29    11    33 1   
    30    12    13 1   
    31    12    34 1   
    32    13    14 2   
    33    15    16 1   
    34    15    35 1   
    35    16    20 1   
    36    17    36 1   
    37    18    19 1   
    38    19    20 2   
    39    19    37 1   
    40    21    38 1   
    41    21    39 1   
    42    21    40 1   
@<TRIPOS>SUBSTRUCTURE
     1 94U         1 TEMP              0 ****  ****    0 ROOT
