@<TRIPOS>MOLECULE
94U
   40    42     1     0     0
SMALL
abcg2


@<TRIPOS>ATOM
      1 C10          2.5790    -0.2970    -0.1980 cc         1 94U      -0.218600
      2 C13          4.7850    -0.2050    -0.4490 cd         1 94U      -0.251000
      3 C20         -6.2850    -1.7850     1.5730 c3         1 94U      -0.116600
      4 C21         -6.1520     1.1320    -0.0440 c3         1 94U       0.231300
      5 C22         -6.4060     1.5890    -1.4760 c3         1 94U      -0.116600
      6 C01         -3.9670     0.0100     0.0780 ca         1 94U       0.344000
      7 C02         -3.2790     1.2210    -0.1280 ca         1 94U      -0.180000
      8 C03         -1.8970     1.2750    -0.1160 ca         1 94U      -0.078500
      9 C04         -1.1270     0.1400     0.1130 ca         1 94U      -0.101000
     10 C05         -1.7890    -1.0620     0.3380 ca         1 94U      -0.078500
     11 C06         -3.1710    -1.1270     0.3160 ca         1 94U      -0.180000
     12 N07          0.2770     0.2600     0.1560 ns         1 94U      -0.147000
     13 C08          1.1560    -0.6250    -0.3750 c          1 94U       0.638700
     14 O09          0.8240    -1.6380    -0.9710 o          1 94U      -0.570100
     15 N11          3.0700     0.6140     0.7090 na         1 94U      -0.248500
     16 C12          4.4130     0.6630     0.5660 cc         1 94U       0.321500
     17 C14          3.6210    -0.8260    -0.9340 cd         1 94U      -0.049000
     18 S15          6.4940    -0.1200    -0.6160 ss         1 94U      -0.020400
     19 C16          6.5210     1.0440     0.6790 cd         1 94U       0.446300
     20 N17          5.3800     1.3600     1.2040 nc         1 94U      -0.626000
     21 C19         -6.0320    -1.3230     0.1430 c3         1 94U       0.231300
     22 H202        -6.8250    -2.7330     1.5760 hc         1 94U       0.040867
     23 H201        -5.3520    -1.9290     2.1180 hc         1 94U       0.040867
     24 H203        -6.8850    -1.0570     2.1200 hc         1 94U       0.040867
     25 H211        -5.7060     1.9410     0.5390 h1         1 94U       0.045450
     26 H212        -7.1070     0.9190     0.4420 h1         1 94U       0.045450
     27 H221        -5.4800     1.8630    -1.9820 hc         1 94U       0.040867
     28 H223        -6.8850     0.8010    -2.0570 hc         1 94U       0.040867
     29 H222        -7.0620     2.4600    -1.4870 hc         1 94U       0.040867
     30 H021        -3.8170     2.1370    -0.3240 ha         1 94U       0.114000
     31 H031        -1.4120     2.2270    -0.2960 ha         1 94U       0.117000
     32 H051        -1.2360    -1.9650     0.5530 ha         1 94U       0.117000
     33 H061        -3.6260    -2.0880     0.5150 ha         1 94U       0.114000
     34 H071         0.6220     1.1670     0.4280 hn         1 94U       0.144000
     35 H111         2.5560     1.0600     1.4530 hn         1 94U       0.363000
     36 H141         3.5290    -1.5470    -1.7290 ha         1 94U       0.160000
     37 H161         7.4640     1.4640     0.9990 h5         1 94U       0.052100
     38 H192        -5.4860    -2.0900    -0.4120 h1         1 94U       0.045450
     39 H191        -6.9860    -1.2150    -0.3780 h1         1 94U       0.045450
     40 N18         -5.3340    -0.0580     0.0520 nh         1 94U      -0.839400
@<TRIPOS>BOND
     1     1    13 1   
     2     1    15 1   
     3     1    17 2   
     4     2    16 2   
     5     2    17 1   
     6     2    18 1   
     7     3    21 1   
     8     3    22 1   
     9     3    23 1   
    10     3    24 1   
    11     4     5 1   
    12     4    25 1   
    13     4    26 1   
    14     4    40 1   
    15     5    27 1   
    16     5    28 1   
    17     5    29 1   
    18     6     7 ar  
    19     6    11 ar  
    20     6    40 1   
    21     7     8 ar  
    22     7    30 1   
    23     8     9 ar  
    24     8    31 1   
    25     9    10 ar  
    26     9    12 1   
    27    10    11 ar  
    28    10    32 1   
    29    11    33 1   
    30    12    13 1   
    31    12    34 1   
    32    13    14 2   
    33    15    16 1   
    34    15    35 1   
    35    16    20 1   
    36    17    36 1   
    37    18    19 1   
    38    19    20 2   
    39    19    37 1   
    40    21    38 1   
    41    21    39 1   
    42    21    40 1   
@<TRIPOS>SUBSTRUCTURE
     1 94U         1 TEMP              0 ****  ****    0 ROOT
