@<TRIPOS>MOLECULE
94V
   27    28     1     0     0
SMALL
abcg2


@<TRIPOS>ATOM
      1 C5           4.0590     0.3050     0.0990 cc         1 94V      -0.210900
      2 C10         -0.6970     0.7830     0.5330 c          1 94V       0.687100
      3 C2           1.6830     0.6870     0.0450 cc         1 94V       0.584300
      4 C4           3.2840    -0.7530     0.4360 cd         1 94V       0.351900
      5 C15         -3.8170    -1.4540     1.4110 ca         1 94V       0.013000
      6 C14         -3.6340    -0.5460     0.3760 ca         1 94V      -0.281500
      7 C16         -3.7350    -0.9680    -0.9490 ca         1 94V       0.205000
      8 C17         -4.1070    -2.7770     1.1260 ca         1 94V      -0.126000
      9 C18         -4.0180    -2.2940    -1.2310 ca         1 94V      -0.124000
     10 C19         -4.2070    -3.1930    -0.1930 ca         1 94V      -0.043000
     11 N3           1.9390    -0.5260     0.3960 nd         1 94V      -0.652000
     12 N7           0.4310     1.2390    -0.1010 ns         1 94V      -0.486400
     13 N9          -1.8300     1.4690     0.1380 ns         1 94V      -0.600300
     14 O11         -0.7330    -0.1110     1.3400 o          1 94V      -0.535100
     15 O12         -4.2350     2.0090     0.0700 o          1 94V      -0.519000
     16 O13         -3.2480     1.2450     2.2390 o          1 94V      -0.519000
     17 S1           3.0770     1.6770    -0.2650 ss         1 94V      -0.035400
     18 S8          -3.3300     1.1460     0.7990 sy         1 94V       1.203300
     19 BR6          5.9050     0.3820    -0.0090 br         1 94V      -0.009100
     20 CL20        -3.4820     0.1110    -2.2700 cl         1 94V      -0.182000
     21 H1           3.6580    -1.7290     0.7100 h4         1 94V       0.058100
     22 H3          -4.2480    -3.4800     1.9350 ha         1 94V       0.128000
     23 H4          -4.0910    -2.6200    -2.2590 ha         1 94V       0.133000
     24 H5          -4.4300    -4.2260    -0.4230 ha         1 94V       0.123000
     25 H6           0.3600     2.0740    -0.6630 hn         1 94V       0.337500
     26 H7          -1.8210     2.1460    -0.6160 hn         1 94V       0.347500
     27 H2          -3.7300    -1.1300     2.4380 ha         1 94V       0.152000
@<TRIPOS>BOND
     1     1     4 2   
     2     1    17 1   
     3     1    19 1   
     4     2    12 1   
     5     2    13 1   
     6     2    14 2   
     7     3    11 2   
     8     3    12 1   
     9     3    17 1   
    10     4    11 1   
    11     4    21 1   
    12     5     6 ar  
    13     5     8 ar  
    14     5    27 1   
    15     6     7 ar  
    16     6    18 1   
    17     7     9 ar  
    18     7    20 1   
    19     8    10 ar  
    20     8    22 1   
    21     9    10 ar  
    22     9    23 1   
    23    10    24 1   
    24    12    25 1   
    25    13    18 1   
    26    13    26 1   
    27    15    18 2   
    28    16    18 2   
@<TRIPOS>SUBSTRUCTURE
     1 94V         1 TEMP              0 ****  ****    0 ROOT
