@<TRIPOS>MOLECULE
94V
   27    28     1     0     0
SMALL
No Charge or Current Charge


@<TRIPOS>ATOM
      1 C5           4.1060     0.3120    -0.1910 cc         1 94V      -0.210900
      2 C10         -0.6660     0.7140     0.6480 c          1 94V       0.687100
      3 C2           1.7400     0.7110     0.0630 cc         1 94V       0.584300
      4 C4           3.4700    -0.5500     0.6700 cd         1 94V       0.351900
      5 C15         -4.0140    -1.4870     1.3960 ca         1 94V       0.013000
      6 C14         -3.7080    -0.5460     0.3850 ca         1 94V      -0.281500
      7 C16         -3.6970    -0.9590    -0.9660 ca         1 94V       0.205000
      8 C17         -4.3120    -2.8170     1.0570 ca         1 94V      -0.126000
      9 C18         -3.9960    -2.2930    -1.2930 ca         1 94V      -0.124000
     10 C19         -4.3050    -3.2220    -0.2870 ca         1 94V      -0.043000
     11 N3           2.1080    -0.3170     0.8130 nd         1 94V      -0.652000
     12 N7           0.4460     1.1730    -0.0010 ns         1 94V      -0.486400
     13 N9          -1.7650     1.4250     0.3170 ns         1 94V      -0.600300
     14 O11         -0.6890    -0.2210     1.4280 o          1 94V      -0.535100
     15 O12         -4.1590     2.0630     0.0540 o          1 94V      -0.519000
     16 O13         -3.2920     1.2480     2.3110 o          1 94V      -0.519000
     17 S1           3.0080     1.4710    -0.8710 ss         1 94V      -0.035400
     18 S8          -3.3270     1.1530     0.8470 sy         1 94V       1.203300
     19 Br6          5.9390     0.3010    -0.6310 br         1 94V      -0.009100
     20 Cl20        -3.2940     0.1340    -2.2920 cl         1 94V      -0.182000
     21 H1           3.9390    -1.3590     1.2170 h4         1 94V       0.058100
     22 H3          -4.5480    -3.5360     1.8390 ha         1 94V       0.128000
     23 H4          -3.9840    -2.6080    -2.3330 ha         1 94V       0.133000
     24 H5          -4.5360    -4.2530    -0.5480 ha         1 94V       0.123000
     25 H6           0.2910     1.9600    -0.6090 hn         1 94V       0.337500
     26 H7          -1.7290     2.1670    -0.3590 hn         1 94V       0.347500
     27 H2          -4.0230    -1.1980     2.4460 ha         1 94V       0.152000
@<TRIPOS>BOND
     1     1     4 2   
     2     1    17 1   
     3     1    19 1   
     4     2    12 1   
     5     2    13 1   
     6     2    14 2   
     7     3    11 2   
     8     3    12 1   
     9     3    17 1   
    10     4    11 1   
    11     4    21 1   
    12     5     6 ar  
    13     5     8 ar  
    14     5    27 1   
    15     6     7 ar  
    16     6    18 1   
    17     7     9 ar  
    18     7    20 1   
    19     8    10 ar  
    20     8    22 1   
    21     9    10 ar  
    22     9    23 1   
    23    10    24 1   
    24    12    25 1   
    25    13    18 1   
    26    13    26 1   
    27    15    18 2   
    28    16    18 2   
@<TRIPOS>SUBSTRUCTURE
     1 94V         1 TEMP              0 ****  ****    0 ROOT
