@<TRIPOS>MOLECULE
94W
   20    21     1     0     0
SMALL
bcc


@<TRIPOS>ATOM
      1 C01         -2.0830     0.1710     0.0080 ca         1 94W       0.134100
      2 O02         -3.2950     0.7660     0.0270 os         1 94W      -0.318900
      3 C03         -4.4480    -0.0490     0.0420 c3         1 94W       0.125700
      4 C04         -0.9840     1.0290    -0.0000 ca         1 94W      -0.122000
      5 C05          0.2800     0.4700    -0.0200 ca         1 94W      -0.021100
      6 C06          0.4980    -0.9180    -0.0310 ca         1 94W       0.103400
      7 C07         -0.6110    -1.7530    -0.0230 ca         1 94W      -0.057000
      8 C08         -1.8900    -1.2140    -0.0040 ca         1 94W      -0.201000
      9 N09          1.8160    -1.3160    -0.0430 nc         1 94W      -0.619100
     10 C10          2.6050    -0.2970    -0.0460 cd         1 94W       0.632100
     11 N11          3.9490    -0.3580    -0.1070 nv         1 94W      -0.900800
     12 S12          1.8170     1.2860    -0.0340 ss         1 94W      -0.173100
     13 H04         -1.1290     2.1020     0.0090 ha         1 94W       0.155000
     14 H08         -2.7310    -1.8940     0.0010 ha         1 94W       0.137000
     15 H031        -4.5140    -0.6830    -0.8470 h1         1 94W       0.040700
     16 H032        -4.4900    -0.6840     0.9310 h1         1 94W       0.040700
     17 H033        -5.3020     0.6230     0.0530 h1         1 94W       0.040700
     18 H07         -0.4790    -2.8270    -0.0330 ha         1 94W       0.147000
     19 H111         4.3670    -1.2530     0.0930 hn         1 94W       0.428300
     20 H112         4.4940     0.4370     0.1820 hn         1 94W       0.428300
@<TRIPOS>BOND
     1     1     2 1   
     2     1     4 ar  
     3     1     8 ar  
     4     2     3 1   
     5     3    15 1   
     6     3    16 1   
     7     3    17 1   
     8     4     5 ar  
     9     4    13 1   
    10     5     6 ar  
    11     5    12 1   
    12     6     7 ar  
    13     6     9 1   
    14     7     8 ar  
    15     7    18 1   
    16     8    14 1   
    17     9    10 2   
    18    10    11 1   
    19    10    12 1   
    20    11    19 1   
    21    11    20 1   
@<TRIPOS>SUBSTRUCTURE
     1 94W         1 TEMP              0 ****  ****    0 ROOT
