@<TRIPOS>MOLECULE
94W
   20    21     1     0     0
SMALL
No Charge or Current Charge


@<TRIPOS>ATOM
      1 C01         -2.0690     0.1780     0.0080 ca         1 94W       0.134100
      2 O02         -3.3260     0.7470     0.0340 os         1 94W      -0.342100
      3 C03         -4.5260    -0.0470     0.0500 c3         1 94W       0.148900
      4 C04         -0.9560     1.0390    -0.0070 ca         1 94W      -0.104000
      5 C05          0.3330     0.4860    -0.0330 ca         1 94W      -0.148000
      6 C06          0.5490    -0.8840    -0.0450 ca         1 94W       0.103400
      7 C07         -0.5570    -1.7520    -0.0300 ca         1 94W      -0.039000
      8 C08         -1.8650    -1.2240    -0.0030 ca         1 94W      -0.183000
      9 N09          1.8740    -1.3180    -0.0700 nc         1 94W      -0.619100
     10 C10          2.6090    -0.2160    -0.0800 cd         1 94W       0.632100
     11 N11          3.9410    -0.4000    -0.0960 nv         1 94W      -1.011200
     12 S12          1.8370     1.3870    -0.0540 ss         1 94W      -0.046200
     13 H04         -1.0980     2.1170     0.0020 ha         1 94W       0.137000
     14 H08         -2.7030    -1.9160     0.0080 ha         1 94W       0.119000
     15 H031        -4.5890    -0.6790    -0.8440 h1         1 94W       0.040700
     16 H032        -4.5570    -0.6890     0.9400 h1         1 94W       0.040700
     17 H033        -5.4110     0.6020     0.0700 h1         1 94W       0.040700
     18 H07         -0.4010    -2.8280    -0.0380 ha         1 94W       0.129000
     19 H111         4.2560    -1.3340     0.1390 hn         1 94W       0.483500
     20 H112         4.5280     0.3680     0.2100 hn         1 94W       0.483500
@<TRIPOS>BOND
     1     1     2 1   
     2     1     4 ar  
     3     1     8 ar  
     4     2     3 1   
     5     3    15 1   
     6     3    16 1   
     7     3    17 1   
     8     4     5 ar  
     9     4    13 1   
    10     5     6 ar  
    11     5    12 1   
    12     6     7 ar  
    13     6     9 1   
    14     7     8 ar  
    15     7    18 1   
    16     8    14 1   
    17     9    10 2   
    18    10    11 1   
    19    10    12 1   
    20    11    19 1   
    21    11    20 1   
@<TRIPOS>SUBSTRUCTURE
     1 94W         1 TEMP              0 ****  ****    0 ROOT
