@<TRIPOS>MOLECULE
94X
   28    28     1     0     0
SMALL
abcg2


@<TRIPOS>ATOM
      1 BR1          4.5660     0.2240     0.0830 br         1 94X      -0.145100
      2 C02          2.7340    -0.1290    -0.2270 ca         1 94X      -0.028900
      3 C03          2.3100    -1.4380    -0.4000 ca         1 94X      -0.094000
      4 C04          0.9620    -1.6850    -0.6250 ca         1 94X      -0.104500
      5 C05          1.8350     0.9260    -0.2810 ca         1 94X      -0.094000
      6 C06          0.4940     0.6550    -0.5100 ca         1 94X      -0.104500
      7 C07          0.0360    -0.6490    -0.6870 ca         1 94X      -0.031300
      8 C08         -1.4270    -0.9090    -0.8830 c3         1 94X      -0.067100
      9 C09         -2.1960    -0.8630     0.4460 c3         1 94X       0.222500
     10 O10         -1.7180    -1.8410     1.3520 oh         1 94X      -0.670000
     11 C11         -3.6700    -1.0280     0.2080 c2         1 94X      -0.297200
     12 C12         -4.5990    -0.0850     0.0270 ce         1 94X      -0.137400
     13 C13         -4.3050     1.4080     0.0460 c          1 94X       0.705200
     14 O14         -5.2700     2.1460     0.3330 o          1 94X      -0.728500
     15 O15         -3.1470     1.7850    -0.2320 o          1 94X      -0.728500
     16 C16         -6.0380    -0.4710    -0.1680 c3         1 94X      -0.036900
     17 H1           3.0100    -2.2610    -0.3590 ha         1 94X       0.116500
     18 H2           0.6360    -2.7090    -0.7640 ha         1 94X       0.130000
     19 H3           2.1640     1.9480    -0.1480 ha         1 94X       0.116500
     20 H4          -0.2120     1.4760    -0.5480 ha         1 94X       0.130000
     21 H5          -1.8600    -0.1550    -1.5390 hc         1 94X       0.059700
     22 H6          -1.5830    -1.8810    -1.3610 hc         1 94X       0.059700
     23 H7          -1.9970     0.1000     0.9140 h1         1 94X       0.117700
     24 H8          -1.8310    -2.7100     0.9520 ho         1 94X       0.415000
     25 H9          -3.9980    -2.0680     0.1750 ha         1 94X       0.122000
     26 H11         -6.6600    -0.1000     0.6470 hc         1 94X       0.024367
     27 H12         -6.4470    -0.0450    -1.0860 hc         1 94X       0.024367
     28 H13         -6.1590    -1.5540    -0.2190 hc         1 94X       0.024367
@<TRIPOS>BOND
     1     1     2 1   
     2     2     3 ar  
     3     2     5 ar  
     4     3     4 ar  
     5     3    17 1   
     6     4     7 ar  
     7     4    18 1   
     8     5     6 ar  
     9     5    19 1   
    10     6     7 ar  
    11     6    20 1   
    12     7     8 1   
    13     8     9 1   
    14     8    21 1   
    15     8    22 1   
    16     9    10 1   
    17     9    11 1   
    18     9    23 1   
    19    10    24 1   
    20    11    12 2   
    21    11    25 1   
    22    12    13 1   
    23    12    16 1   
    24    13    14 1   
    25    13    15 1   
    26    16    26 1   
    27    16    27 1   
    28    16    28 1   
@<TRIPOS>SUBSTRUCTURE
     1 94X         1 TEMP              0 ****  ****    0 ROOT
