@<TRIPOS>MOLECULE
94X
   28    28     1     0     0
SMALL
No Charge or Current Charge


@<TRIPOS>ATOM
      1 Br1          4.6920     0.2190    -0.0940 br         1 94X      -0.145100
      2 C02          2.8240    -0.1260    -0.3030 ca         1 94X      -0.028900
      3 C03          2.3800    -1.4250    -0.6010 ca         1 94X      -0.094000
      4 C04          1.0060    -1.6790    -0.7540 ca         1 94X      -0.104500
      5 C05          1.8980     0.9200    -0.1600 ca         1 94X      -0.094000
      6 C06          0.5230     0.6650    -0.3140 ca         1 94X      -0.104500
      7 C07          0.0690    -0.6360    -0.6090 ca         1 94X      -0.031300
      8 C08         -1.4230    -0.9040    -0.7790 c3         1 94X      -0.067100
      9 C09         -2.2080    -0.8630     0.5540 c3         1 94X       0.222500
     10 O10         -1.7770    -1.9390     1.3920 oh         1 94X      -0.670000
     11 C11         -3.7030    -1.0120     0.3290 c2         1 94X      -0.297200
     12 C12         -4.6350    -0.0580     0.0280 ce         1 94X      -0.137400
     13 C13         -4.3590     1.4350    -0.1550 c          1 94X       0.705200
     14 O14         -5.2970     2.1720    -0.4240 o          1 94X      -0.728500
     15 O15         -3.2220     1.8640    -0.0310 o          1 94X      -0.728500
     16 C16         -6.0900    -0.4880    -0.1540 c3         1 94X      -0.036900
     17 H1           3.0980    -2.2350    -0.7120 ha         1 94X       0.116500
     18 H2           0.6690    -2.6880    -0.9830 ha         1 94X       0.130000
     19 H3           2.2420     1.9260     0.0690 ha         1 94X       0.116500
     20 H4          -0.1900     1.4800    -0.2040 ha         1 94X       0.130000
     21 H5          -1.8460    -0.1530    -1.4570 hc         1 94X       0.059700
     22 H6          -1.5910    -1.8710    -1.2690 hc         1 94X       0.059700
     23 H7          -2.0000     0.0930     1.0570 h1         1 94X       0.117700
     24 H8          -1.9710    -2.7660     0.9040 ho         1 94X       0.415000
     25 H9          -4.0350    -2.0460     0.4240 ha         1 94X       0.122000
     26 H11         -6.7440     0.0130     0.5700 hc         1 94X       0.024367
     27 H12         -6.4530    -0.2430    -1.1590 hc         1 94X       0.024367
     28 H13         -6.2270    -1.5670    -0.0170 hc         1 94X       0.024367
@<TRIPOS>BOND
     1     1     2 1   
     2     2     3 ar  
     3     2     5 ar  
     4     3     4 ar  
     5     3    17 1   
     6     4     7 ar  
     7     4    18 1   
     8     5     6 ar  
     9     5    19 1   
    10     6     7 ar  
    11     6    20 1   
    12     7     8 1   
    13     8     9 1   
    14     8    21 1   
    15     8    22 1   
    16     9    10 1   
    17     9    11 1   
    18     9    23 1   
    19    10    24 1   
    20    11    12 2   
    21    11    25 1   
    22    12    13 1   
    23    12    16 1   
    24    13    14 1   
    25    13    15 1   
    26    16    26 1   
    27    16    27 1   
    28    16    28 1   
@<TRIPOS>SUBSTRUCTURE
     1 94X         1 TEMP              0 ****  ****    0 ROOT
