@<TRIPOS>MOLECULE
94Y
   27    28     1     0     0
SMALL
bcc


@<TRIPOS>ATOM
      1 C5          -0.1390     1.4320     0.2080 c          1 94Y       0.820100
      2 C8           3.0430     0.8210     0.4840 ca         1 94Y      -0.287500
      3 C9          -4.5940    -0.3070    -0.4190 cc         1 94Y      -0.130300
      4 C10          3.5740     0.3020    -0.6870 ca         1 94Y      -0.024000
      5 C2          -2.4170     0.7150    -0.2920 cc         1 94Y       0.587300
      6 C11         -3.9010    -0.5350     0.7200 cd         1 94Y       0.420200
      7 C15          4.2020    -1.6720     0.5360 ca         1 94Y       0.077400
      8 C12          4.1510    -0.9560    -0.6590 ca         1 94Y      -0.002600
      9 C17          3.0860     0.1220     1.6780 ca         1 94Y       0.007000
     10 C18          3.6730    -1.1310     1.6980 ca         1 94Y      -0.136000
     11 N3           0.8660     2.2040    -0.3440 ns         1 94Y      -0.673300
     12 N6          -1.2720     1.4260    -0.5660 ns         1 94Y      -0.550400
     13 N7          -2.6700     0.0520     0.7830 nd         1 94Y      -0.653000
     14 O13          2.0980     2.8890     1.7820 o          1 94Y      -0.589800
     15 O14          3.0820     3.2550    -0.4990 o          1 94Y      -0.589800
     16 O16          0.0030     0.8390     1.2470 o          1 94Y      -0.532100
     17 S1           2.3290     2.4380     0.4290 sy         1 94Y       1.343900
     18 S4          -3.6740     0.6840    -1.4940 ss         1 94Y      -0.188300
     19 CL20         4.8060    -1.6120    -2.1040 cl         1 94Y      -0.069400
     20 CL21         4.9240    -3.2260     0.5840 cl         1 94Y      -0.061400
     21 H1           3.5440     0.8530    -1.6170 ha         1 94Y       0.162000
     22 H2          -4.2570    -1.1270     1.5510 h4         1 94Y       0.059100
     23 H3           2.6790     0.5340     2.5900 ha         1 94Y       0.177000
     24 H4           3.7220    -1.6910     2.6210 ha         1 94Y       0.160000
     25 H5           0.7780     2.6470    -1.2510 hn         1 94Y       0.345500
     26 H6          -1.2680     1.9680    -1.4190 hn         1 94Y       0.335500
     27 BR1         -6.2840    -0.9080    -0.8740 br         1 94Y      -0.008100
@<TRIPOS>BOND
     1     1    11 1   
     2     1    12 1   
     3     1    16 2   
     4     2     4 ar  
     5     2     9 ar  
     6     2    17 1   
     7     3     6 2   
     8     3    18 1   
     9     3    27 1   
    10     4     8 ar  
    11     4    21 1   
    12     5    12 1   
    13     5    13 2   
    14     5    18 1   
    15     6    13 1   
    16     6    22 1   
    17     7     8 ar  
    18     7    10 ar  
    19     7    20 1   
    20     8    19 1   
    21     9    10 ar  
    22     9    23 1   
    23    10    24 1   
    24    11    17 1   
    25    11    25 1   
    26    12    26 1   
    27    14    17 2   
    28    15    17 2   
@<TRIPOS>SUBSTRUCTURE
     1 94Y         1 TEMP              0 ****  ****    0 ROOT
