@<TRIPOS>MOLECULE
94Y
   27    28     1     0     0
SMALL
No Charge or Current Charge


@<TRIPOS>ATOM
      1 C5          -0.1770     1.4130     0.2760 c          1 94Y       0.686100
      2 C8           3.1020     0.8460     0.4360 ca         1 94Y      -0.287500
      3 C9          -4.7060    -0.2100    -0.4200 cc         1 94Y      -0.209900
      4 C10          3.7220     0.3010    -0.7100 ca         1 94Y      -0.006000
      5 C2          -2.4830     0.7190    -0.2980 cc         1 94Y       0.587300
      6 C11         -3.9970    -0.5700     0.7020 cd         1 94Y       0.354900
      7 C15          4.3160    -1.6940     0.5570 ca         1 94Y       0.169000
      8 C12          4.3290    -0.9660    -0.6500 ca         1 94Y       0.089000
      9 C17          3.0900     0.1130     1.6410 ca         1 94Y       0.025000
     10 C18          3.6970    -1.1530     1.6970 ca         1 94Y      -0.118000
     11 N3           0.7950     2.1730    -0.2760 ns         1 94Y      -0.606300
     12 N6          -1.2960     1.3810    -0.5080 ns         1 94Y      -0.483400
     13 N7          -2.7180    -0.0330     0.7670 nd         1 94Y      -0.653000
     14 O13          2.1190     2.9710     1.7120 o          1 94Y      -0.519000
     15 O14          2.9970     3.2680    -0.6750 o          1 94Y      -0.519000
     16 O16         -0.0470     0.8320     1.3370 o          1 94Y      -0.532100
     17 S1           2.3180     2.4660     0.3480 sy         1 94Y       1.202300
     18 S4          -3.7870     0.8330    -1.4570 ss         1 94Y      -0.043400
     19 Cl20         5.0950    -1.6190    -2.1000 cl         1 94Y      -0.161000
     20 Cl21         5.0660    -3.2870     0.6670 cl         1 94Y      -0.153000
     21 H1           3.7370     0.8510    -1.6490 ha         1 94Y       0.144000
     22 H2          -4.3530    -1.2140     1.4970 h4         1 94Y       0.059100
     23 H3           2.6090     0.5130     2.5340 ha         1 94Y       0.159000
     24 H4           3.6870    -1.7180     2.6250 ha         1 94Y       0.142000
     25 H5           0.6690     2.6240    -1.1640 hn         1 94Y       0.345500
     26 H6          -1.2390     1.9200    -1.3560 hn         1 94Y       0.335500
     27 Br1         -6.4630    -0.7440    -0.8470 br         1 94Y      -0.008100
@<TRIPOS>BOND
     1     1    11 1   
     2     1    12 1   
     3     1    16 2   
     4     2     4 ar  
     5     2     9 ar  
     6     2    17 1   
     7     3     6 2   
     8     3    18 1   
     9     3    27 1   
    10     4     8 ar  
    11     4    21 1   
    12     5    12 1   
    13     5    13 2   
    14     5    18 1   
    15     6    13 1   
    16     6    22 1   
    17     7     8 ar  
    18     7    10 ar  
    19     7    20 1   
    20     8    19 1   
    21     9    10 ar  
    22     9    23 1   
    23    10    24 1   
    24    11    17 1   
    25    11    25 1   
    26    12    26 1   
    27    14    17 2   
    28    15    17 2   
@<TRIPOS>SUBSTRUCTURE
     1 94Y         1 TEMP              0 ****  ****    0 ROOT
