@<TRIPOS>MOLECULE
94Z
   52    54     1     0     0
SMALL
No Charge or Current Charge


@<TRIPOS>ATOM
      1 CAG          6.9050    -0.2380    -0.5830 ca         1 94Z      -0.129500
      2 CAH          8.1970     0.3230    -0.5770 ca         1 94Z      -0.124000
      3 CAZ          8.4260     1.5360     0.0890 ca         1 94Z       0.141000
      4 FBA          9.6650     2.0760     0.0970 f          1 94Z      -0.181000
      5 CAY          7.3740     2.1910     0.7470 ca         1 94Z      -0.124000
      6 CAX          6.0840     1.6280     0.7380 ca         1 94Z      -0.129500
      7 CAW          5.8370     0.4070     0.0730 ca         1 94Z       0.268000
      8 NAV          4.5480    -0.1780     0.0500 nh         1 94Z      -0.781400
      9 CAF          3.3190     0.6430     0.1950 c6         1 94Z       0.169300
     10 CAE          2.0900    -0.0200    -0.4890 c6         1 94Z       0.090000
     11 CAU          4.3510    -1.5490     0.5860 c6         1 94Z       0.169300
     12 CAT          3.1620    -2.2700    -0.1030 c6         1 94Z       0.090000
     13 NAS          1.8930    -1.4780    -0.1890 n          1 94Z      -0.409800
     14 CAR          0.6910    -2.1370    -0.5360 c          1 94Z       0.606100
     15 OBC          0.6710    -3.3530    -0.6910 o          1 94Z      -0.611100
     16 CAQ         -0.6050    -1.3070    -0.6460 c3         1 94Z      -0.144400
     17 CAP         -1.9160    -2.1150    -0.8710 c3         1 94Z      -0.151400
     18 CAO         -3.1430    -1.2000    -0.9760 c          1 94Z       0.605100
     19 OAD         -3.3440    -0.5190    -1.9750 o          1 94Z      -0.572100
     20 NAN         -3.9900    -1.2470     0.1240 ns         1 94Z      -0.152000
     21 CAM         -5.2050    -0.5720     0.4310 ca         1 94Z      -0.023000
     22 CAL         -5.7730     0.4310    -0.3860 ca         1 94Z      -0.086000
     23 CAC         -5.8570    -0.9310     1.6230 ca         1 94Z      -0.152000
     24 CAB         -7.0580    -0.3080     1.9950 ca         1 94Z      -0.090000
     25 CAA         -7.6210     0.6850     1.1790 ca         1 94Z      -0.117000
     26 CAK         -6.9840     1.0700    -0.0250 ca         1 94Z      -0.125600
     27 CAJ         -7.5620     2.1410    -0.9290 c          1 94Z       0.612700
     28 OAI         -7.0260     2.4870    -1.9700 o          1 94Z      -0.591100
     29 NBB         -8.7190     2.7350    -0.5620 nt         1 94Z      -0.602000
     30 H1           6.7300    -1.1720    -1.1090 ha         1 94Z       0.118000
     31 H2           9.0150    -0.1790    -1.0870 ha         1 94Z       0.130500
     32 H3           7.5590     3.1290     1.2630 ha         1 94Z       0.130500
     33 H4           5.2820     2.1410     1.2610 ha         1 94Z       0.118000
     34 H5           3.0940     0.7890     1.2620 h1         1 94Z       0.047950
     35 H6           3.4640     1.6390    -0.2500 h1         1 94Z       0.047950
     36 H7           1.2030     0.5560    -0.1950 h1         1 94Z       0.067200
     37 H8           2.2010     0.0920    -1.5770 h1         1 94Z       0.067200
     38 H9           5.2560    -2.1600     0.4540 h1         1 94Z       0.047950
     39 H10          4.1530    -1.4970     1.6670 h1         1 94Z       0.047950
     40 H11          3.4680    -2.5410    -1.1230 h1         1 94Z       0.067200
     41 H12          2.9740    -3.2100     0.4350 h1         1 94Z       0.067200
     42 H13         -0.6700    -0.6690     0.2440 hc         1 94Z       0.075700
     43 H14         -0.4570    -0.5610    -1.4360 hc         1 94Z       0.075700
     44 H15         -1.8230    -2.6750    -1.8090 hc         1 94Z       0.077200
     45 H16         -2.0420    -2.8150    -0.0360 hc         1 94Z       0.077200
     46 H17         -3.6830    -1.8800     0.8520 hn         1 94Z       0.150000
     47 H18         -5.2850     0.7330    -1.3070 ha         1 94Z       0.168000
     48 H19         -5.4340    -1.6990     2.2680 ha         1 94Z       0.111000
     49 H20         -7.5540    -0.5960     2.9200 ha         1 94Z       0.116000
     50 H21         -8.5520     1.1470     1.4970 ha         1 94Z       0.116000
     51 H22         -9.1790     2.4650     0.2930 hn         1 94Z       0.310500
     52 H23         -9.1140     3.4500    -1.1550 hn         1 94Z       0.310500
@<TRIPOS>BOND
     1     1     2 ar  
     2     1     7 ar  
     3     1    30 1   
     4     2     3 ar  
     5     2    31 1   
     6     3     4 1   
     7     3     5 ar  
     8     5     6 ar  
     9     5    32 1   
    10     6     7 ar  
    11     6    33 1   
    12     7     8 1   
    13     8     9 1   
    14     8    11 1   
    15     9    10 1   
    16     9    34 1   
    17     9    35 1   
    18    10    13 1   
    19    10    36 1   
    20    10    37 1   
    21    11    12 1   
    22    11    38 1   
    23    11    39 1   
    24    12    13 1   
    25    12    40 1   
    26    12    41 1   
    27    13    14 1   
    28    14    15 2   
    29    14    16 1   
    30    16    17 1   
    31    16    42 1   
    32    16    43 1   
    33    17    18 1   
    34    17    44 1   
    35    17    45 1   
    36    18    19 2   
    37    18    20 1   
    38    20    21 1   
    39    20    46 1   
    40    21    22 ar  
    41    21    23 ar  
    42    22    26 ar  
    43    22    47 1   
    44    23    24 ar  
    45    23    48 1   
    46    24    25 ar  
    47    24    49 1   
    48    25    26 ar  
    49    25    50 1   
    50    26    27 1   
    51    27    28 2   
    52    27    29 1   
    53    29    51 1   
    54    29    52 1   
@<TRIPOS>SUBSTRUCTURE
     1 94Z         1 TEMP              0 ****  ****    0 ROOT
