@<TRIPOS>MOLECULE
94Z
   52    54     1     0     0
SMALL
abcg2


@<TRIPOS>ATOM
      1 CAG          6.8730    -0.3830    -0.1290 ca         1 94Z      -0.129500
      2 CAH          8.0290     0.2250     0.3270 ca         1 94Z      -0.124000
      3 CAZ          7.9630     1.5160     0.8170 ca         1 94Z       0.141000
      4 FBA          9.0880     2.1130     1.2550 f          1 94Z      -0.181000
      5 CAY          6.7690     2.2020     0.8620 ca         1 94Z      -0.124000
      6 CAX          5.6100     1.5770     0.4170 ca         1 94Z      -0.129500
      7 CAW          5.6350     0.2760    -0.0930 ca         1 94Z       0.268000
      8 NAV          4.4950    -0.3650    -0.5880 nh         1 94Z      -0.781400
      9 CAF          3.2960     0.4360    -0.7380 c6         1 94Z       0.169300
     10 CAE          2.2740    -0.3000    -1.5910 c6         1 94Z       0.090000
     11 CAU          4.2050    -1.6880    -0.0370 c6         1 94Z       0.169300
     12 CAT          3.1830    -2.4130    -0.8950 c6         1 94Z       0.090000
     13 NAS          1.9850    -1.6030    -1.0320 n          1 94Z      -0.409800
     14 CAR          0.8120    -1.9810    -0.4780 c          1 94Z       0.606100
     15 OBC          0.6770    -3.0670     0.0700 o          1 94Z      -0.611100
     16 CAQ         -0.3470    -1.0060    -0.5800 c3         1 94Z      -0.144400
     17 CAP         -1.6140    -1.5850     0.0220 c3         1 94Z      -0.151400
     18 CAO         -2.7950    -0.6490    -0.1010 c          1 94Z       0.605100
     19 OAD         -2.8240     0.3040    -0.8540 o          1 94Z      -0.572100
     20 NAN         -3.8360    -1.0020     0.7060 ns         1 94Z      -0.152000
     21 CAM         -5.1090    -0.4440     0.8210 ca         1 94Z      -0.023000
     22 CAL         -5.5510     0.6580     0.0930 ca         1 94Z      -0.086000
     23 CAC         -5.9800    -1.0450     1.7340 ca         1 94Z      -0.152000
     24 CAB         -7.2600    -0.5580     1.9130 ca         1 94Z      -0.090000
     25 CAA         -7.7080     0.5280     1.1770 ca         1 94Z      -0.117000
     26 CAK         -6.8510     1.1280     0.2620 ca         1 94Z      -0.125600
     27 CAJ         -7.2670     2.3080    -0.5590 c          1 94Z       0.612700
     28 OAI         -6.4520     3.1170    -0.9750 o          1 94Z      -0.591100
     29 NBB         -8.5870     2.4210    -0.7920 nt         1 94Z      -0.602000
     30 H1           6.9440    -1.3820    -0.5390 ha         1 94Z       0.118000
     31 H2           8.9750    -0.2990     0.2820 ha         1 94Z       0.130500
     32 H3           6.7280     3.2110     1.2530 ha         1 94Z       0.130500
     33 H4           4.6830     2.1300     0.4850 ha         1 94Z       0.118000
     34 H5           2.8400     0.6880     0.2320 h1         1 94Z       0.047950
     35 H6           3.5450     1.3730    -1.2390 h1         1 94Z       0.047950
     36 H7           1.3740     0.3030    -1.6740 h1         1 94Z       0.067200
     37 H8           2.6720    -0.4310    -2.6020 h1         1 94Z       0.067200
     38 H9           5.1140    -2.2860    -0.0120 h1         1 94Z       0.047950
     39 H10          3.8300    -1.6060     0.9920 h1         1 94Z       0.047950
     40 H11          3.5980    -2.5960    -1.8910 h1         1 94Z       0.067200
     41 H12          2.9390    -3.3710    -0.4460 h1         1 94Z       0.067200
     42 H13         -0.0840    -0.0780    -0.0670 hc         1 94Z       0.075700
     43 H14         -0.5110    -0.7380    -1.6250 hc         1 94Z       0.075700
     44 H15         -1.8880    -2.5230    -0.4700 hc         1 94Z       0.077200
     45 H16         -1.4570    -1.8370     1.0730 hc         1 94Z       0.077200
     46 H17         -3.6810    -1.8110     1.2870 hn         1 94Z       0.150000
     47 H18         -4.9010     1.1490    -0.6110 ha         1 94Z       0.168000
     48 H19         -5.6520    -1.9020     2.3110 ha         1 94Z       0.111000
     49 H20         -7.9130    -1.0300     2.6340 ha         1 94Z       0.116000
     50 H21         -8.7070     0.9070     1.3510 ha         1 94Z       0.116000
     51 H22         -9.2270     1.6670    -0.6240 hn         1 94Z       0.310500
     52 H23         -8.9180     3.1640    -1.3840 hn         1 94Z       0.310500
@<TRIPOS>BOND
     1     1     2 ar  
     2     1     7 ar  
     3     1    30 1   
     4     2     3 ar  
     5     2    31 1   
     6     3     4 1   
     7     3     5 ar  
     8     5     6 ar  
     9     5    32 1   
    10     6     7 ar  
    11     6    33 1   
    12     7     8 1   
    13     8     9 1   
    14     8    11 1   
    15     9    10 1   
    16     9    34 1   
    17     9    35 1   
    18    10    13 1   
    19    10    36 1   
    20    10    37 1   
    21    11    12 1   
    22    11    38 1   
    23    11    39 1   
    24    12    13 1   
    25    12    40 1   
    26    12    41 1   
    27    13    14 1   
    28    14    15 2   
    29    14    16 1   
    30    16    17 1   
    31    16    42 1   
    32    16    43 1   
    33    17    18 1   
    34    17    44 1   
    35    17    45 1   
    36    18    19 2   
    37    18    20 1   
    38    20    21 1   
    39    20    46 1   
    40    21    22 ar  
    41    21    23 ar  
    42    22    26 ar  
    43    22    47 1   
    44    23    24 ar  
    45    23    48 1   
    46    24    25 ar  
    47    24    49 1   
    48    25    26 ar  
    49    25    50 1   
    50    26    27 1   
    51    27    28 2   
    52    27    29 1   
    53    29    51 1   
    54    29    52 1   
@<TRIPOS>SUBSTRUCTURE
     1 94Z         1 TEMP              0 ****  ****    0 ROOT
