@<TRIPOS>MOLECULE
950
   44    46     1     0     0
SMALL
No Charge or Current Charge


@<TRIPOS>ATOM
      1 C1          -4.6290    -0.6030     0.1310 ca         1 950      -0.343900
      2 C2          -4.8260     0.8040     0.0790 ca         1 950       0.174000
      3 F2          -6.0760     1.3170     0.0780 f          1 950      -0.194000
      4 C3          -3.7350     1.6940     0.0490 ca         1 950      -0.154000
      5 C4          -2.4490     1.1500     0.0720 ca         1 950       0.018000
      6 C5          -2.2330    -0.2160     0.1230 ca         1 950      -0.035000
      7 C6          -3.3050    -1.1180     0.1550 ca         1 950      -0.037000
      8 C7          -5.7850    -1.5290     0.1620 ce         1 950       0.542400
      9 N1          -5.7120    -2.6480     0.9410 nv         1 950      -0.580700
     10 N2          -6.7700    -1.3960    -0.7750 nv         1 950      -0.564800
     11 N3          -1.2290     1.7950     0.0500 na         1 950      -0.302900
     12 N4          -0.8730    -0.4730     0.1340 nc         1 950      -0.304600
     13 C8          -0.2940     0.7710     0.0890 cc         1 950       0.314500
     14 C9           1.0680     1.1000     0.0790 cd         1 950      -0.342200
     15 C11          1.4380     2.5070     0.0280 cd         1 950      -0.126000
     16 C12          2.7760     2.8430     0.0170 cc         1 950      -0.268000
     17 C13          3.8260     1.8690     0.0540 cc         1 950      -0.232000
     18 C14          3.5250     0.5170     0.1030 cd         1 950      -0.006100
     19 C15          2.1090     0.0250     0.1190 c          1 950       0.596500
     20 O6           1.8500    -1.1770     0.1630 o          1 950      -0.622100
     21 O5           4.5420    -0.4220     0.1380 os         1 950      -0.323100
     22 C10          5.9360    -0.0570     0.1220 c3         1 950       0.163600
     23 C20          6.7850    -1.3520     0.1650 c3         1 950      -0.061700
     24 C30          6.5550    -2.2510    -1.0750 c3         1 950      -0.085600
     25 C40          8.2850    -1.0270     0.3430 c3         1 950      -0.085600
     26 HC3         -3.8930     2.7680     0.0130 ha         1 950       0.144000
     27 HC6         -3.1100    -2.1880     0.1840 ha         1 950       0.131000
     28 HH11        -5.0330    -2.6540     1.6910 hn         1 950       0.368500
     29 HH12        -6.5300    -3.2350     1.0350 hn         1 950       0.368500
     30 HH21        -7.6000    -1.9680    -0.7010 hn         1 950       0.368500
     31 HH22        -6.8260    -0.5250    -1.2830 hn         1 950       0.368500
     32 HN3         -1.0530     2.7880     0.0140 hn         1 950       0.365000
     33 HC2          0.7180     3.3190    -0.0030 ha         1 950       0.133000
     34 H5           3.0600     3.8930    -0.0210 ha         1 950       0.160000
     35 HC4          4.8460     2.2400     0.0410 ha         1 950       0.162000
     36 H10A         6.1770     0.5610     0.9960 h1         1 950       0.021200
     37 H10B         6.1810     0.5090    -0.7870 h1         1 950       0.021200
     38 H20          6.4710    -1.9210     1.0490 hc         1 950       0.058700
     39 H30A         7.1580    -3.1640    -1.0080 hc         1 950       0.032367
     40 H30B         5.5030    -2.5500    -1.1550 hc         1 950       0.032367
     41 H30C         6.8330    -1.7240    -1.9960 hc         1 950       0.032367
     42 H40A         8.6650    -0.4530    -0.5120 hc         1 950       0.032367
     43 H40B         8.4490    -0.4370     1.2520 hc         1 950       0.032367
     44 H40C         8.8750    -1.9480     0.4280 hc         1 950       0.032367
@<TRIPOS>BOND
     1     1     2 ar  
     2     1     7 ar  
     3     1     8 1   
     4     2     3 1   
     5     2     4 ar  
     6     4     5 ar  
     7     4    26 1   
     8     5     6 ar  
     9     5    11 2   
    10     6     7 ar  
    11     6    12 2   
    12     7    27 1   
    13     8     9 2   
    14     8    10 1   
    15     9    28 1   
    16     9    29 1   
    17    10    30 1   
    18    10    31 1   
    19    11    13 1   
    20    11    32 1   
    21    12    13 1   
    22    13    14 2   
    23    14    15 1   
    24    14    19 1   
    25    15    16 2   
    26    15    33 1   
    27    16    17 1   
    28    16    34 1   
    29    17    18 2   
    30    17    35 1   
    31    18    19 1   
    32    18    21 1   
    33    19    20 2   
    34    21    22 1   
    35    22    23 1   
    36    22    36 1   
    37    22    37 1   
    38    23    24 1   
    39    23    25 1   
    40    23    38 1   
    41    24    39 1   
    42    24    40 1   
    43    24    41 1   
    44    25    42 1   
    45    25    43 1   
    46    25    44 1   
@<TRIPOS>SUBSTRUCTURE
     1 950         1 TEMP              0 ****  ****    0 ROOT
