@<TRIPOS>MOLECULE
950
   44    46     1     0     0
SMALL
bcc


@<TRIPOS>ATOM
      1 H1          -4.5030    -0.6030     0.0450 ca         1 950      -0.260000
      2 H2          -4.6730     0.6980    -0.4490 ca         1 950       0.104000
      3 H2          -5.9100     1.1070    -0.7710 f          1 950      -0.124000
      4 H3          -3.6390     1.5950    -0.5910 ca         1 950      -0.172000
      5 H4          -2.3830     1.1320    -0.2260 ca         1 950       0.018000
      6 H5          -2.1590    -0.1710     0.2660 ca         1 950      -0.035000
      7 H6          -3.2270    -1.0380     0.4150 ca         1 950      -0.055000
      8 H7          -5.6380    -1.5200     0.2030 c2         1 950       0.365000
      9 H1          -5.7240    -2.2140     1.3130 n8         1 950      -0.326000
     10 H2          -6.5230    -1.6590    -0.7540 n8         1 950      -0.326000
     11 H3          -1.1560     1.7040    -0.2380 na         1 950      -0.230000
     12 H4          -0.8290    -0.3580     0.5270 n2         1 950      -0.164000
     13 H8          -0.2390     0.7760     0.2200 cc         1 950       0.201000
     14 H9           1.1620     1.1130     0.3280 cd         1 950      -0.323000
     15 H11          1.5300     2.4710     0.4580 cd         1 950      -0.076000
     16 H12          2.8410     2.8530     0.5410 cc         1 950      -0.218000
     17 H13          3.8530     1.8710     0.4840 cc         1 950      -0.182000
     18 H14          3.5290     0.5450     0.3520 cd         1 950      -0.031000
     19 H15          2.1520     0.0750     0.2770 c          1 950       0.319000
     20 H6           1.9090    -1.1450     0.1520 o          1 950      -0.383000
     21 H5           4.4320    -0.4630     0.2780 os         1 950      -0.184000
     22 H10          5.8020    -0.1370     0.2500 c3         1 950      -0.010000
     23 H20          6.6130    -1.4000     0.0130 c3         1 950      -0.101000
     24 H30          6.2510    -2.0610    -1.3120 c3         1 950      -0.203500
     25 H40          8.0980    -1.0530     0.0650 c3         1 950      -0.203500
     26 HC3         -3.8160     2.5970    -0.9590 ha         1 950       0.162000
     27 HC6         -3.0700    -2.0440     0.7810 ha         1 950       0.149000
     28 HH11        -5.1220    -2.0070     2.0930 ha         1 950       0.268500
     29 HH12        -6.4320    -2.9190     1.4550 ha         1 950       0.268500
     30 HH21        -7.3370    -2.2460    -0.6460 ha         1 950       0.268500
     31 HH22        -6.3940    -1.2260    -1.6530 ha         1 950       0.268500
     32 HN3         -0.9380     2.6170    -0.6040 ha         1 950       0.265000
     33 HC2          0.7640     3.2350     0.5320 ha         1 950       0.083000
     34 H5           3.1080     3.8950     0.6620 ha         1 950       0.110000
     35 HC4          4.8860     2.1880     0.5510 ha         1 950       0.112000
     36 H10A         6.1050     0.3350     1.1950 ha         1 950       0.060500
     37 H10B         6.0100     0.5860    -0.5520 ha         1 950       0.060500
     38 H20          6.4000    -2.1020     0.8270 ha         1 950       0.098000
     39 H30A         6.8620    -2.9490    -1.4840 ha         1 950       0.071667
     40 H30B         5.2060    -2.3680    -1.3420 ha         1 950       0.071667
     41 H30C         6.4230    -1.3770    -2.1470 ha         1 950       0.071667
     42 H40A         8.3620    -0.3340    -0.7140 ha         1 950       0.071667
     43 H40B         8.3770    -0.6210     1.0270 ha         1 950       0.071667
     44 H40C         8.7100    -1.9430    -0.0870 ha         1 950       0.071667
@<TRIPOS>BOND
     1     1     2 ar  
     2     1     7 ar  
     3     1     8 1   
     4     2     3 1   
     5     2     4 ar  
     6     4     5 ar  
     7     4    26 1   
     8     5     6 ar  
     9     5    11 2   
    10     6     7 ar  
    11     6    12 2   
    12     7    27 1   
    13     8     9 2   
    14     8    10 1   
    15     9    28 1   
    16     9    29 1   
    17    10    30 1   
    18    10    31 1   
    19    11    13 1   
    20    11    32 1   
    21    12    13 1   
    22    13    14 2   
    23    14    15 1   
    24    14    19 1   
    25    15    16 2   
    26    15    33 1   
    27    16    17 1   
    28    16    34 1   
    29    17    18 2   
    30    17    35 1   
    31    18    19 1   
    32    18    21 1   
    33    19    20 2   
    34    21    22 1   
    35    22    23 1   
    36    22    36 1   
    37    22    37 1   
    38    23    24 1   
    39    23    25 1   
    40    23    38 1   
    41    24    39 1   
    42    24    40 1   
    43    24    41 1   
    44    25    42 1   
    45    25    43 1   
    46    25    44 1   
@<TRIPOS>SUBSTRUCTURE
     1 950         1 TEMP              0 ****  ****    0 ROOT
