@<TRIPOS>MOLECULE
951
   36    38     1     0     0
SMALL
No Charge or Current Charge


@<TRIPOS>ATOM
      1 CAA         -2.9730    -1.1870    -0.0720 cc         1 951       0.138500
      2 CAB          4.7940     0.4030    -0.0800 ca         1 951      -0.192600
      3 OAC         -1.6690    -0.7590    -0.1170 os         1 951      -0.195000
      4 CAD         -4.1240    -0.3080    -0.2910 ca         1 951      -0.084500
      5 CAE          5.5060    -0.9320     0.0600 c          1 951       0.722600
      6 CAF         -3.0440    -2.5340     0.1390 cd         1 951      -0.155000
      7 CAG         -0.8900    -1.8810     0.0990 cc         1 951       0.186700
      8 NAH          1.2010    -0.6580    -0.0170 n2         1 951      -0.342400
      9 CAI         -1.7090    -2.9750     0.2550 cd         1 951      -0.227000
     10 CAJ          0.5710    -1.7860     0.1310 ce         1 951       0.165200
     11 CAK          3.3770     0.5140    -0.0970 ca         1 951       0.327000
     12 CAL         -4.1850     1.0000     0.2500 ca         1 951       0.135000
     13 OAM          6.7120    -0.9690    -0.1350 o          1 951      -0.716000
     14 NAN          2.5670    -0.6270     0.0300 nu         1 951      -0.644300
     15 OAO          4.8610    -1.9290     0.3610 o          1 951      -0.716000
     16 ClAP        -2.9000     1.6480     1.2710 cl         1 951      -0.170000
     17 CAQ          5.5670     1.5850    -0.2070 ca         1 951      -0.060000
     18 CAR         -5.2100    -0.7750    -1.0650 ca         1 951      -0.099000
     19 CAS          2.7780     1.7850    -0.2420 ca         1 951      -0.176000
     20 CAT         -5.3070     1.8140     0.0100 ca         1 951      -0.111000
     21 CAU          4.9550     2.8400    -0.3490 ca         1 951      -0.179000
     22 CAV         -6.3270     0.0440    -1.3020 ca         1 951      -0.117000
     23 CAW          3.5600     2.9430    -0.3670 ca         1 951      -0.104000
     24 CAX         -6.3760     1.3390    -0.7660 ca         1 951      -0.111000
     25 HAF         -3.9440    -3.1370     0.2080 ha         1 951       0.127000
     26 HAI         -1.3780    -3.9930     0.4330 ha         1 951       0.137000
     27 HAJ          1.0970    -2.7290     0.2980 h4         1 951       0.009800
     28 HNAN         3.1470    -1.4760     0.1880 hn         1 951       0.568000
     29 HAQ          6.6550     1.5360    -0.1960 ha         1 951       0.128000
     30 HAR         -5.1850    -1.7740    -1.4950 ha         1 951       0.117000
     31 HAS          1.6970     1.8830    -0.2570 ha         1 951       0.119000
     32 HAT         -5.3480     2.8140     0.4330 ha         1 951       0.124000
     33 HAU          5.5670     3.7340    -0.4450 ha         1 951       0.090000
     34 HAV         -7.1540    -0.3270    -1.9030 ha         1 951       0.109000
     35 HAW          3.0850     3.9150    -0.4770 ha         1 951       0.085000
     36 HAX         -7.2420     1.9730    -0.9490 ha         1 951       0.109000
@<TRIPOS>BOND
     1     1     3 1   
     2     1     4 1   
     3     1     6 2   
     4     2     5 1   
     5     2    11 ar  
     6     2    17 ar  
     7     3     7 1   
     8     4    12 ar  
     9     4    18 ar  
    10     5    13 1   
    11     5    15 1   
    12     6     9 1   
    13     6    25 1   
    14     7     9 2   
    15     7    10 1   
    16     8    10 2   
    17     8    14 1   
    18     9    26 1   
    19    10    27 1   
    20    11    14 1   
    21    11    19 ar  
    22    12    16 1   
    23    12    20 ar  
    24    14    28 1   
    25    17    21 ar  
    26    17    29 1   
    27    18    22 ar  
    28    18    30 1   
    29    19    23 ar  
    30    19    31 1   
    31    20    24 ar  
    32    20    32 1   
    33    21    23 ar  
    34    21    33 1   
    35    22    24 ar  
    36    22    34 1   
    37    23    35 1   
    38    24    36 1   
@<TRIPOS>SUBSTRUCTURE
     1 951         1 TEMP              0 ****  ****    0 ROOT
