@<TRIPOS>MOLECULE
951
   36    38     1     0     0
SMALL
bcc


@<TRIPOS>ATOM
      1 CAA         -2.8700    -1.3000    -0.0730 cc         1 951       0.248200
      2 CAB          4.5540     0.4580    -0.0900 ca         1 951      -0.192600
      3 OAC         -1.5640    -0.9610    -0.1140 os         1 951      -0.283800
      4 CAD         -3.8800    -0.2790    -0.3000 ca         1 951      -0.084500
      5 CAE          5.4130    -0.7920     0.0080 c          1 951       0.933200
      6 CAF         -2.9860    -2.6400     0.1560 cd         1 951      -0.238300
      7 CAG         -0.8340    -2.0730     0.0930 cc         1 951       0.296400
      8 NAH          1.1690    -0.8320    -0.0130 n2         1 951      -0.342400
      9 CAI         -1.6650    -3.1430     0.2630 cd         1 951      -0.310300
     10 CAJ          0.5990    -1.9720     0.1120 ce         1 951       0.165200
     11 CAK          3.1410     0.4320    -0.0880 ca         1 951       0.188600
     12 CAL         -3.7490     1.0710     0.0470 ca         1 951       0.043400
     13 OAM          6.6440    -0.6420    -0.0280 o          1 951      -0.821300
     14 NAN          2.4870    -0.7730     0.0040 nu         1 951      -0.450700
     15 OAO          4.8210    -1.8980     0.1220 o          1 951      -0.821300
     16 CLAP        -2.3340     1.6710     0.8470 cl         1 951      -0.078400
     17 CAQ          5.1850     1.6970    -0.1860 ca         1 951      -0.078000
     18 CAR         -5.0850    -0.6720    -0.8950 ca         1 951      -0.117000
     19 CAS          2.4240     1.6350    -0.1750 ca         1 951      -0.194000
     20 CAT         -4.7680     1.9810    -0.2010 ca         1 951      -0.129000
     21 CAU          4.4800     2.8850    -0.2750 ca         1 951      -0.197000
     22 CAV         -6.1090     0.2250    -1.1320 ca         1 951      -0.135000
     23 CAW          3.0900     2.8420    -0.2680 ca         1 951      -0.122000
     24 CAX         -5.9480     1.5610    -0.7910 ca         1 951      -0.129000
     25 HAF         -3.9030    -3.1980     0.2560 ha         1 951       0.145000
     26 HAI         -1.3640    -4.1620     0.4530 ha         1 951       0.155000
     27 HAJ          1.1490    -2.9050     0.2440 h4         1 951       0.009800
     28 HNAN         3.1070    -1.5910     0.0930 hn         1 951       0.512800
     29 HAQ          6.2670     1.7170    -0.1890 ha         1 951       0.146000
     30 HAR         -5.2040    -1.7060    -1.1920 ha         1 951       0.135000
     31 HAS          1.3440     1.6100    -0.1660 ha         1 951       0.137000
     32 HAT         -4.6370     3.0180     0.0760 ha         1 951       0.142000
     33 HAU          5.0030     3.8300    -0.3480 ha         1 951       0.108000
     34 HAV         -7.0250    -0.1160    -1.5970 ha         1 951       0.127000
     35 HAW          2.5150     3.7570    -0.3350 ha         1 951       0.103000
     36 HAX         -6.7350     2.2790    -0.9820 ha         1 951       0.127000
@<TRIPOS>BOND
     1     1     3 1   
     2     1     4 1   
     3     1     6 2   
     4     2     5 1   
     5     2    11 ar  
     6     2    17 ar  
     7     3     7 1   
     8     4    12 ar  
     9     4    18 ar  
    10     5    13 1   
    11     5    15 1   
    12     6     9 1   
    13     6    25 1   
    14     7     9 2   
    15     7    10 1   
    16     8    10 2   
    17     8    14 1   
    18     9    26 1   
    19    10    27 1   
    20    11    14 1   
    21    11    19 ar  
    22    12    16 1   
    23    12    20 ar  
    24    14    28 1   
    25    17    21 ar  
    26    17    29 1   
    27    18    22 ar  
    28    18    30 1   
    29    19    23 ar  
    30    19    31 1   
    31    20    24 ar  
    32    20    32 1   
    33    21    23 ar  
    34    21    33 1   
    35    22    24 ar  
    36    22    34 1   
    37    23    35 1   
    38    24    36 1   
@<TRIPOS>SUBSTRUCTURE
     1 951         1 TEMP              0 ****  ****    0 ROOT
