@<TRIPOS>MOLECULE
952
   54    57     1     0     0
SMALL
bcc


@<TRIPOS>ATOM
      1 O2          -7.7470     1.4520    -0.8310 o          1 952      -0.604500
      2 C22         -6.6150     1.1450    -0.5000 c          1 952       0.729700
      3 C1          -5.5250     2.0730    -0.2920 cc         1 952      -0.266400
      4 C           -5.7660     3.5330    -0.4940 c3         1 952      -0.019900
      5 N2          -6.2770    -0.1780    -0.2910 ns         1 952      -0.602500
      6 C21         -5.0600    -0.6990     0.0750 c          1 952       0.824500
      7 O1          -4.9000    -1.8960     0.2100 o          1 952      -0.635500
      8 N           -4.0720     0.2370     0.2680 n          1 952      -0.374000
      9 C2          -4.3330     1.5690     0.0760 cd         1 952       0.041600
     10 C3          -2.7160    -0.1620     0.6770 c6         1 952       0.123700
     11 C7          -1.9970    -0.9760    -0.3960 c6         1 952       0.151800
     12 N1          -0.6110    -1.1540    -0.0040 n3         1 952      -0.724600
     13 C6          -0.5060    -1.8840     1.2490 c6         1 952       0.159800
     14 C5          -1.1940    -1.1300     2.3740 c6         1 952      -0.074400
     15 C4          -2.6540    -0.8440     2.0380 c6         1 952      -0.091400
     16 C8           0.1600    -1.7750    -1.0590 c3         1 952       0.215100
     17 C9           1.6470    -1.6340    -0.8620 ca         1 952      -0.057300
     18 C14          2.5040    -2.6770    -1.2050 ca         1 952      -0.161000
     19 C13          3.8760    -2.5170    -1.0810 ca         1 952      -0.096000
     20 C12          4.4180    -1.3290    -0.6090 ca         1 952      -0.199000
     21 C11          3.5570    -0.2930    -0.2590 ca         1 952       0.133100
     22 C10          2.1810    -0.4440    -0.3850 ca         1 952      -0.139000
     23 O            3.9830     0.9110     0.2190 os         1 952      -0.257200
     24 C15          5.3320     1.1390     0.3430 ca         1 952       0.096100
     25 C20          6.0260     1.7110    -0.7130 ca         1 952      -0.135500
     26 C19          7.3810     1.9760    -0.5700 ca         1 952      -0.120500
     27 C18          8.0350     1.6670     0.6160 ca         1 952      -0.129000
     28 C17          7.3270     1.0960     1.6660 ca         1 952      -0.120500
     29 C16          5.9720     0.8270     1.5330 ca         1 952      -0.135500
     30 H2          -6.5590     3.9000     0.1590 hc         1 952       0.046700
     31 H1          -4.8670     4.1090    -0.2830 hc         1 952       0.046700
     32 H3          -6.0690     3.7480    -1.5200 hc         1 952       0.046700
     33 H24         -7.0080    -0.8640    -0.4330 hn         1 952       0.342500
     34 H4          -3.4890     2.2240     0.2430 h4         1 952       0.156000
     35 H           -2.1670     0.7780     0.7600 h1         1 952       0.065700
     36 H12         -2.5030    -1.9380    -0.5590 h1         1 952       0.051700
     37 H11         -2.0250    -0.4250    -1.3390 h1         1 952       0.051700
     38 H9          -0.9420    -2.8950     1.1560 h1         1 952       0.042200
     39 H10          0.5490    -2.0200     1.4910 h1         1 952       0.042200
     40 H8          -1.1330    -1.7130     3.2950 hc         1 952       0.051200
     41 H7          -0.6620    -0.1910     2.5530 hc         1 952       0.051200
     42 H6          -3.1060    -0.2010     2.7970 hc         1 952       0.061700
     43 H5          -3.2180    -1.7770     2.0240 hc         1 952       0.061700
     44 H14         -0.0900    -2.8410    -1.1880 h1         1 952       0.042700
     45 H13         -0.1100    -1.2900    -2.0020 h1         1 952       0.042700
     46 H18          2.0980    -3.6120    -1.5690 ha         1 952       0.131000
     47 H17          4.5400    -3.3280    -1.3480 ha         1 952       0.131000
     48 H16          5.4910    -1.2270    -0.5170 ha         1 952       0.144000
     49 H15          1.5220     0.3670    -0.1010 ha         1 952       0.159000
     50 H23          5.5120     1.9530    -1.6350 ha         1 952       0.146500
     51 H22          7.9260     2.4250    -1.3900 ha         1 952       0.135000
     52 H21          9.0920     1.8750     0.7240 ha         1 952       0.134000
     53 H20          7.8300     0.8550     2.5930 ha         1 952       0.135000
     54 H19          5.4160     0.3820     2.3490 ha         1 952       0.146500
@<TRIPOS>BOND
     1     1     2 2   
     2     2     3 1   
     3     2     5 1   
     4     3     4 1   
     5     3     9 2   
     6     4    30 1   
     7     4    31 1   
     8     4    32 1   
     9     5     6 1   
    10     5    33 1   
    11     6     7 2   
    12     6     8 1   
    13     8     9 1   
    14     8    10 1   
    15     9    34 1   
    16    10    11 1   
    17    10    15 1   
    18    10    35 1   
    19    11    12 1   
    20    11    36 1   
    21    11    37 1   
    22    12    13 1   
    23    12    16 1   
    24    13    14 1   
    25    13    38 1   
    26    13    39 1   
    27    14    15 1   
    28    14    40 1   
    29    14    41 1   
    30    15    42 1   
    31    15    43 1   
    32    16    17 1   
    33    16    44 1   
    34    16    45 1   
    35    17    18 ar  
    36    17    22 ar  
    37    18    19 ar  
    38    18    46 1   
    39    19    20 ar  
    40    19    47 1   
    41    20    21 ar  
    42    20    48 1   
    43    21    22 ar  
    44    21    23 1   
    45    22    49 1   
    46    23    24 1   
    47    24    25 ar  
    48    24    29 ar  
    49    25    26 ar  
    50    25    50 1   
    51    26    27 ar  
    52    26    51 1   
    53    27    28 ar  
    54    27    52 1   
    55    28    29 ar  
    56    28    53 1   
    57    29    54 1   
@<TRIPOS>SUBSTRUCTURE
     1 952         1 TEMP              0 ****  ****    0 ROOT
