@<TRIPOS>MOLECULE
952
   54    57     1     0     0
SMALL
No Charge or Current Charge


@<TRIPOS>ATOM
      1 O2          -8.0160     1.0760    -0.3850 o          1 952      -0.529000
      2 C22         -6.8280     0.8990    -0.1650 c          1 952       0.587200
      3 C1          -5.8250     1.9770    -0.0190 cc         1 952      -0.266400
      4 C           -6.3430     3.3900    -0.1550 c3         1 952      -0.019900
      5 N2          -6.3210    -0.3520    -0.0320 ns         1 952      -0.468500
      6 C21         -5.0380    -0.7230     0.2110 c          1 952       0.615000
      7 O1          -4.7540    -1.9050     0.3070 o          1 952      -0.560000
      8 N           -4.0980     0.3270     0.3400 n          1 952      -0.307000
      9 C2          -4.5060     1.6580     0.2280 cd         1 952      -0.008400
     10 C3          -2.6540     0.0440     0.6020 c6         1 952       0.123700
     11 C7          -1.9540    -0.7980    -0.5060 c6         1 952       0.151800
     12 N1          -0.4920    -0.9560    -0.2410 n3         1 952      -0.724600
     13 C6          -0.2450    -1.5690     1.0980 c6         1 952       0.159800
     14 C5          -0.8730    -0.7250     2.2360 c6         1 952      -0.074400
     15 C4          -2.3920    -0.5250     2.0190 c6         1 952      -0.091400
     16 C8           0.2000    -1.6720    -1.3410 c3         1 952       0.215100
     17 C9           1.7210    -1.6810    -1.1990 ca         1 952      -0.057300
     18 C14          2.4220    -2.8950    -1.0610 ca         1 952      -0.143000
     19 C13          3.8220    -2.8980    -0.9310 ca         1 952      -0.078000
     20 C12          4.5290    -1.6840    -0.9330 ca         1 952      -0.181000
     21 C11          3.8330    -0.4660    -1.0580 ca         1 952       0.133100
     22 C10          2.4370    -0.4680    -1.2020 ca         1 952      -0.121000
     23 O            4.5050     0.7360    -1.0720 os         1 952      -0.257200
     24 C15          5.5690     1.0080    -0.2420 ca         1 952       0.096100
     25 C20          6.6240     1.8000    -0.7270 ca         1 952      -0.117500
     26 C19          7.7170     2.1050     0.1040 ca         1 952      -0.102500
     27 C18          7.7510     1.6240     1.4240 ca         1 952      -0.111000
     28 C17          6.6910     0.8430     1.9170 ca         1 952      -0.102500
     29 C16          5.5980     0.5370     1.0870 ca         1 952      -0.117500
     30 H2          -7.1050     3.6050     0.6030 hc         1 952       0.046700
     31 H1          -5.5370     4.1240    -0.0330 hc         1 952       0.046700
     32 H3          -6.7920     3.5520    -1.1430 hc         1 952       0.046700
     33 H24         -6.9820    -1.1050    -0.1250 hn         1 952       0.342500
     34 H4          -3.7160     2.3960     0.3480 h4         1 952       0.206000
     35 H           -2.1300     1.0090     0.5800 h1         1 952       0.065700
     36 H12         -2.4260    -1.7880    -0.5750 h1         1 952       0.051700
     37 H11         -2.1120    -0.2990    -1.4730 h1         1 952       0.051700
     38 H9          -0.6610    -2.5870     1.1330 h1         1 952       0.042200
     39 H10          0.8340    -1.6550     1.2910 h1         1 952       0.042200
     40 H8          -0.6940    -1.2140     3.2030 hc         1 952       0.051200
     41 H7          -0.3720     0.2520     2.2830 hc         1 952       0.051200
     42 H6          -2.7950     0.1570     2.7800 hc         1 952       0.061700
     43 H5          -2.9080    -1.4850     2.1480 hc         1 952       0.061700
     44 H14         -0.1640    -2.7070    -1.4020 h1         1 952       0.042700
     45 H13         -0.0420    -1.1960    -2.3010 h1         1 952       0.042700
     46 H18          1.8830    -3.8400    -1.0550 ha         1 952       0.113000
     47 H17          4.3570    -3.8400    -0.8300 ha         1 952       0.113000
     48 H16          5.6120    -1.6900    -0.8410 ha         1 952       0.126000
     49 H15          1.9060     0.4750    -1.3040 ha         1 952       0.141000
     50 H23          6.5950     2.1730    -1.7480 ha         1 952       0.128500
     51 H22          8.5350     2.7140    -0.2750 ha         1 952       0.117000
     52 H21          8.5960     1.8610     2.0670 ha         1 952       0.116000
     53 H20          6.7150     0.4770     2.9410 ha         1 952       0.117000
     54 H19          4.7760    -0.0580     1.4770 ha         1 952       0.128500
@<TRIPOS>BOND
     1     1     2 2   
     2     2     3 1   
     3     2     5 1   
     4     3     4 1   
     5     3     9 2   
     6     4    30 1   
     7     4    31 1   
     8     4    32 1   
     9     5     6 1   
    10     5    33 1   
    11     6     7 2   
    12     6     8 1   
    13     8     9 1   
    14     8    10 1   
    15     9    34 1   
    16    10    11 1   
    17    10    15 1   
    18    10    35 1   
    19    11    12 1   
    20    11    36 1   
    21    11    37 1   
    22    12    13 1   
    23    12    16 1   
    24    13    14 1   
    25    13    38 1   
    26    13    39 1   
    27    14    15 1   
    28    14    40 1   
    29    14    41 1   
    30    15    42 1   
    31    15    43 1   
    32    16    17 1   
    33    16    44 1   
    34    16    45 1   
    35    17    18 ar  
    36    17    22 ar  
    37    18    19 ar  
    38    18    46 1   
    39    19    20 ar  
    40    19    47 1   
    41    20    21 ar  
    42    20    48 1   
    43    21    22 ar  
    44    21    23 1   
    45    22    49 1   
    46    23    24 1   
    47    24    25 ar  
    48    24    29 ar  
    49    25    26 ar  
    50    25    50 1   
    51    26    27 ar  
    52    26    51 1   
    53    27    28 ar  
    54    27    52 1   
    55    28    29 ar  
    56    28    53 1   
    57    29    54 1   
@<TRIPOS>SUBSTRUCTURE
     1 952         1 TEMP              0 ****  ****    0 ROOT
