@<TRIPOS>MOLECULE
953
   37    39     1     0     0
SMALL
bcc


@<TRIPOS>ATOM
      1 CL           1.2570    -2.7480    -1.6720 cl         1 953      -0.078400
      2 C25          2.0660    -1.3640    -1.0400 ca         1 953       0.094400
      3 C24          3.3970    -1.1720    -1.3630 ca         1 953      -0.132000
      4 C23          4.0660    -0.0470    -0.9050 ca         1 953      -0.058000
      5 C18          3.3930     0.8830    -0.1290 ca         1 953      -0.202300
      6 C19          4.0790     2.1040     0.3990 c3         1 953       0.724200
      7 F22          5.3130     2.2490    -0.0890 f          1 953      -0.232967
      8 F21          3.4020     3.2200     0.1010 f          1 953      -0.232967
      9 F20          4.1870     2.0680     1.7350 f          1 953      -0.232967
     10 C17          2.0570     0.6800     0.1950 ca         1 953      -0.060000
     11 C16          1.3740    -0.4470    -0.2470 ca         1 953      -0.022000
     12 C15         -0.0410    -0.6080     0.0970 cc         1 953       0.001700
     13 N1          -0.9500     0.3160    -0.2790 na         1 953      -0.131100
     14 C11         -0.7140    -1.5890     0.8110 cd         1 953      -0.213600
     15 C12         -0.0630    -2.7450     1.4550 c          1 953       0.714700
     16 N14         -0.8830    -3.7480     1.8110 nt         1 953      -0.672000
     17 O13          1.1440    -2.7690     1.6570 o          1 953      -0.612100
     18 C10         -2.0750    -1.2160     0.8440 cd         1 953      -0.106000
     19 C2          -2.1980    -0.0290     0.1590 cc         1 953      -0.200800
     20 C3          -3.3880     0.7660    -0.0930 ca         1 953       0.587800
     21 C9          -3.3540     1.9740    -0.7890 ca         1 953      -0.450600
     22 C8          -4.5710     2.6120    -0.9560 ca         1 953       0.491200
     23 N7          -5.7150     2.1380    -0.4940 nb         1 953      -0.776000
     24 C5          -5.6390     0.9720     0.1660 ca         1 953       0.927900
     25 N4          -4.5250     0.2710     0.3810 nb         1 953      -0.786000
     26 N6          -6.7850     0.4690     0.6480 nv         1 953      -0.967500
     27 H24          3.9160    -1.8910    -1.9820 ha         1 953       0.157000
     28 H23          5.1050     0.0840    -1.1710 ha         1 953       0.155000
     29 H17          1.5260     1.3930     0.8130 ha         1 953       0.151000
     30 H1          -0.7280     1.1160    -0.8520 hn         1 953       0.303700
     31 H10         -2.8860    -1.7270     1.3370 ha         1 953       0.166000
     32 H141        -1.8570    -3.7640     1.5630 hn         1 953       0.313000
     33 H142        -0.5120    -4.5640     2.2690 hn         1 953       0.313000
     34 H9          -2.4490     2.4110    -1.1850 ha         1 953       0.143000
     35 H8          -4.6200     3.5540    -1.4900 h4         1 953       0.021100
     36 H61N        -7.6510     0.9590     0.5160 hn         1 953       0.451300
     37 H62N        -6.7900    -0.3980     1.1550 hn         1 953       0.451300
@<TRIPOS>BOND
     1     1     2 1   
     2     2     3 ar  
     3     2    11 ar  
     4     3     4 ar  
     5     3    27 1   
     6     4     5 ar  
     7     4    28 1   
     8     5     6 1   
     9     5    10 ar  
    10     6     7 1   
    11     6     8 1   
    12     6     9 1   
    13    10    11 ar  
    14    10    29 1   
    15    11    12 1   
    16    12    13 1   
    17    12    14 2   
    18    13    19 1   
    19    13    30 1   
    20    14    15 1   
    21    14    18 1   
    22    15    16 1   
    23    15    17 2   
    24    16    32 1   
    25    16    33 1   
    26    18    19 2   
    27    18    31 1   
    28    19    20 1   
    29    20    21 ar  
    30    20    25 ar  
    31    21    22 ar  
    32    21    34 1   
    33    22    23 ar  
    34    22    35 1   
    35    23    24 ar  
    36    24    25 ar  
    37    24    26 1   
    38    26    36 1   
    39    26    37 1   
@<TRIPOS>SUBSTRUCTURE
     1 953         1 TEMP              0 ****  ****    0 ROOT
