@<TRIPOS>MOLECULE
953
   37    39     1     0     0
SMALL
No Charge or Current Charge


@<TRIPOS>ATOM
      1 Cl           1.1220    -2.4730    -2.1380 cl         1 953      -0.170000
      2 C25          2.0420    -1.2460    -1.2630 ca         1 953       0.186000
      3 C24          3.4240    -1.1450    -1.4890 ca         1 953      -0.114000
      4 C23          4.1800    -0.1600    -0.8320 ca         1 953      -0.040000
      5 C18          3.5560     0.7450     0.0530 ca         1 953      -0.202300
      6 C19          4.3730     1.8190     0.7790 c3         1 953       0.360300
      7 F22          5.4740     2.1880     0.0850 f          1 953      -0.111667
      8 F21          3.6590     2.9480     0.9950 f          1 953      -0.111667
      9 F20          4.7950     1.3820     1.9860 f          1 953      -0.111667
     10 C17          2.1660     0.6300     0.2820 ca         1 953      -0.042000
     11 C16          1.4060    -0.3620    -0.3650 ca         1 953      -0.022000
     12 C15         -0.0300    -0.4380    -0.1140 cc         1 953      -0.049000
     13 N1          -0.9930     0.4770    -0.5290 na         1 953      -0.080000
     14 C11         -0.6530    -1.3980     0.6590 cd         1 953      -0.213600
     15 C12          0.0220    -2.5330     1.3560 c          1 953       0.647700
     16 N14         -0.8040    -3.3520     2.0390 nt         1 953      -0.605000
     17 O13          1.2210    -2.7550     1.3550 o          1 953      -0.612100
     18 C10         -2.0400    -1.0810     0.6690 cd         1 953      -0.088000
     19 C2          -2.2420     0.0590    -0.0700 cc         1 953      -0.251500
     20 C3          -3.5450     0.7070    -0.2520 ca         1 953       0.259500
     21 C9          -3.6760     1.8400    -1.0780 ca         1 953      -0.302000
     22 C8          -4.9480     2.4200    -1.2060 ca         1 953       0.162900
     23 N7          -6.0160     1.9160    -0.5600 nb         1 953      -0.250000
     24 C5          -5.7850     0.8380     0.2020 ca         1 953       0.401900
     25 N4          -4.6190     0.2070     0.3960 nb         1 953      -0.260000
     26 N6          -6.8570     0.3290     0.8570 nv         1 953      -1.077900
     27 H24          3.9080    -1.8310    -2.1790 ha         1 953       0.139000
     28 H23          5.2520    -0.1040    -1.0180 ha         1 953       0.137000
     29 H17          1.6680     1.3080     0.9730 ha         1 953       0.133000
     30 H1          -0.8100     1.3050    -1.0870 hn         1 953       0.354000
     31 H10         -2.8170    -1.6380     1.1860 ha         1 953       0.148000
     32 H141        -1.7950    -3.1760     2.0450 hn         1 953       0.313000
     33 H142        -0.4150    -4.1390     2.5350 hn         1 953       0.313000
     34 H9          -2.8270     2.2600    -1.6080 ha         1 953       0.125000
     35 H8          -5.1150     3.2960    -1.8310 h4         1 953       0.021100
     36 H61N        -7.6950     0.9020     0.9270 hn         1 953       0.506500
     37 H62N        -6.6940    -0.3300     1.6160 hn         1 953       0.506500
@<TRIPOS>BOND
     1     1     2 1   
     2     2     3 ar  
     3     2    11 ar  
     4     3     4 ar  
     5     3    27 1   
     6     4     5 ar  
     7     4    28 1   
     8     5     6 1   
     9     5    10 ar  
    10     6     7 1   
    11     6     8 1   
    12     6     9 1   
    13    10    11 ar  
    14    10    29 1   
    15    11    12 1   
    16    12    13 1   
    17    12    14 2   
    18    13    19 1   
    19    13    30 1   
    20    14    15 1   
    21    14    18 1   
    22    15    16 1   
    23    15    17 2   
    24    16    32 1   
    25    16    33 1   
    26    18    19 2   
    27    18    31 1   
    28    19    20 1   
    29    20    21 ar  
    30    20    25 ar  
    31    21    22 ar  
    32    21    34 1   
    33    22    23 ar  
    34    22    35 1   
    35    23    24 ar  
    36    24    25 ar  
    37    24    26 1   
    38    26    36 1   
    39    26    37 1   
@<TRIPOS>SUBSTRUCTURE
     1 953         1 TEMP              0 ****  ****    0 ROOT
