@<TRIPOS>MOLECULE
954
   47    50     1     0     0
SMALL
abcg2


@<TRIPOS>ATOM
      1 F           -6.1600    -0.4860    -0.5570 f          1 954      -0.158000
      2 C15         -4.8350    -0.5150    -0.3300 ca         1 954      -0.004000
      3 C13         -4.2430    -1.5750     0.3260 ca         1 954       0.160300
      4 C14         -5.0440    -2.7400     0.8070 c3         1 954      -0.151400
      5 N5          -2.9290    -1.5720     0.5330 nb         1 954      -0.241000
      6 C16         -4.0450     0.5410    -0.7580 ca         1 954       0.235300
      7 S1          -4.8090     1.8750    -1.5890 ss         1 954      -0.313300
      8 C17         -3.3930     2.9380    -1.9300 c3         1 954       0.025900
      9 N6          -2.7450     0.5410    -0.5410 nb         1 954      -0.260000
     10 C12         -2.2380    -0.5200     0.0930 ca         1 954       0.405900
     11 N4          -0.9080    -0.5210     0.3080 nh         1 954      -0.784300
     12 C10         -0.2180    -1.5990     0.9860 c5         1 954       0.264800
     13 C9           1.2140    -1.0570     1.0970 c5         1 954      -0.174700
     14 N3           2.7960    -2.5380    -0.0410 n          1 954      -0.382300
     15 N1           1.4590    -1.0400    -1.2560 nu         1 954      -0.901400
     16 C11         -0.0280     0.5200    -0.1690 c5         1 954       0.247800
     17 C5           1.3450    -0.1560    -0.1310 c5         1 954       0.305500
     18 C            2.4890     0.8220    -0.0670 cc         1 954      -0.252300
     19 C1           3.4900     0.9880    -0.9840 cd         1 954      -0.116000
     20 C2           4.4080     1.9980    -0.6240 cd         1 954      -0.079000
     21 C3           4.0860     2.5850     0.5700 cc         1 954      -0.151000
     22 S            2.6600     1.9040     1.2560 ss         1 954       0.291000
     23 C4           4.7840     3.6210     1.2230 cg         1 954       0.343000
     24 N            5.3540     4.4680     1.7590 n1         1 954      -0.431000
     25 C8           2.2530    -2.1420     1.1550 c          1 954       0.589000
     26 C7           3.8250    -3.5680    -0.0430 c3         1 954       0.071300
     27 C6           2.3430    -2.0820    -1.2890 c2         1 954       0.692800
     28 H1          -5.4910    -3.2770    -0.0310 hc         1 954       0.063033
     29 H2          -4.4070    -3.4280     1.3570 hc         1 954       0.063033
     30 H3          -5.8590    -2.4200     1.4560 hc         1 954       0.063033
     31 H4          -2.9190     3.2690    -1.0100 h1         1 954       0.070367
     32 H5          -2.6640     2.4330    -2.5580 h1         1 954       0.070367
     33 H6          -3.7930     3.7990    -2.4610 h1         1 954       0.070367
     34 H7          -0.6380    -1.8000     1.9710 h1         1 954       0.072700
     35 H8          -0.2620    -2.5270     0.4090 h1         1 954       0.072700
     36 H9           1.3040    -0.4700     2.0130 hc         1 954       0.098700
     37 H10          3.2620    -3.3940    -2.3400 hn         1 954       0.407400
     38 H12         -0.2900     0.8550    -1.1740 h1         1 954       0.069700
     39 H13         -0.0440     1.3990     0.4840 h1         1 954       0.069700
     40 H14          3.5730     0.4080    -1.8910 ha         1 954       0.150000
     41 H15          5.2660     2.2840    -1.2130 ha         1 954       0.150000
     42 H16          3.4340    -4.5210    -0.3970 h1         1 954       0.055700
     43 H17          4.6570    -3.2620    -0.6750 h1         1 954       0.055700
     44 H18          4.1980    -3.7030     0.9650 h1         1 954       0.055700
     45 H11          1.2350    -0.6700    -2.1680 hn         1 954       0.509000
     46 O            2.5800    -2.6370     2.2120 o          1 954      -0.519000
     47 N2           2.6780    -2.5740    -2.4120 n2         1 954      -0.883100
@<TRIPOS>BOND
     1     1     2 1   
     2     2     3 ar  
     3     2     6 ar  
     4     3     4 1   
     5     3     5 ar  
     6     4    28 1   
     7     4    29 1   
     8     4    30 1   
     9     5    10 ar  
    10     6     7 1   
    11     6     9 ar  
    12     7     8 1   
    13     8    31 1   
    14     8    32 1   
    15     8    33 1   
    16     9    10 ar  
    17    10    11 1   
    18    11    12 1   
    19    11    16 1   
    20    12    13 1   
    21    12    34 1   
    22    12    35 1   
    23    13    17 1   
    24    13    25 1   
    25    13    36 1   
    26    14    25 1   
    27    14    26 1   
    28    14    27 1   
    29    15    17 1   
    30    15    27 1   
    31    15    45 1   
    32    16    17 1   
    33    16    38 1   
    34    16    39 1   
    35    17    18 1   
    36    18    19 2   
    37    18    22 1   
    38    19    20 1   
    39    19    40 1   
    40    20    21 2   
    41    20    41 1   
    42    21    22 1   
    43    21    23 1   
    44    23    24 3   
    45    25    46 2   
    46    26    42 1   
    47    26    43 1   
    48    26    44 1   
    49    27    47 2   
    50    37    47 1   
@<TRIPOS>SUBSTRUCTURE
     1 954         1 TEMP              0 ****  ****    0 ROOT
