@<TRIPOS>MOLECULE
954
   47    50     1     0     0
SMALL
No Charge or Current Charge


@<TRIPOS>ATOM
      1 F           -6.3600    -0.4080    -0.3020 f          1 954      -0.158000
      2 C15         -5.0100    -0.4560    -0.1850 ca         1 954      -0.004000
      3 C13         -4.3760    -1.5510     0.4330 ca         1 954       0.160300
      4 C14         -5.1620    -2.7240     0.9970 c3         1 954      -0.151400
      5 N5          -3.0340    -1.6000     0.5510 nb         1 954      -0.241000
      6 C16         -4.1970     0.5840    -0.6760 ca         1 954       0.235300
      7 S1          -4.9280     2.0150    -1.4780 ss         1 954      -0.313300
      8 C17         -3.4790     3.0730    -1.9350 c3         1 954       0.025900
      9 N6          -2.8560     0.5280    -0.5550 nb         1 954      -0.260000
     10 C12         -2.3360    -0.5590     0.0500 ca         1 954       0.405900
     11 N4          -0.9320    -0.6070     0.1740 nh         1 954      -0.784300
     12 C10         -0.1850    -1.7390     0.7860 c5         1 954       0.264800
     13 C9           1.2010    -1.0810     1.0230 c5         1 954      -0.174700
     14 N3           2.8070    -2.6720     0.0240 n          1 954      -0.382300
     15 N1           1.5990    -1.2430    -1.3230 nu         1 954      -0.901400
     16 C11         -0.0030     0.4000    -0.4410 c5         1 954       0.247800
     17 C5           1.4300    -0.2340    -0.2470 c5         1 954       0.305500
     18 C            2.5250     0.8120    -0.1300 cc         1 954      -0.252300
     19 C1           3.3530     1.2170    -1.1540 cd         1 954      -0.116000
     20 C2           4.2740     2.2290    -0.7710 cd         1 954      -0.079000
     21 C3           4.1470     2.6070     0.5410 cc         1 954      -0.151000
     22 S            2.8630     1.7220     1.3470 ss         1 954       0.291000
     23 C4           4.9130     3.5870     1.2220 cg         1 954       0.343000
     24 N            5.5570     4.3990     1.7600 n1         1 954      -0.431000
     25 C8           2.2640    -2.1640     1.2210 c          1 954       0.589000
     26 C7           3.6910    -3.8620     0.1250 c3         1 954       0.071300
     27 C6           2.7410    -1.9270    -1.1520 c2         1 954       0.692800
     28 H1          -5.7510    -3.2110     0.2120 hc         1 954       0.063033
     29 H2          -4.5050    -3.4830     1.4390 hc         1 954       0.063033
     30 H3          -5.8540    -2.3890     1.7780 hc         1 954       0.063033
     31 H4          -2.9220     3.3540    -1.0330 h1         1 954       0.070367
     32 H5          -2.8150     2.5230    -2.6140 h1         1 954       0.070367
     33 H6          -3.8300     3.9830    -2.4370 h1         1 954       0.070367
     34 H7          -0.6280    -2.0800     1.7320 h1         1 954       0.072700
     35 H8          -0.1330    -2.6000     0.1030 h1         1 954       0.072700
     36 H9           1.1420    -0.4800     1.9350 hc         1 954       0.098700
     37 H10          4.1650    -2.8050    -1.9520 hn         1 954       0.407400
     38 H12         -0.2200     0.5850    -1.5020 h1         1 954       0.069700
     39 H13         -0.0750     1.3600     0.0880 h1         1 954       0.069700
     40 H14          3.3150     0.8100    -2.1600 ha         1 954       0.150000
     41 H15          5.0040     2.6600    -1.4520 ha         1 954       0.150000
     42 H16          3.6800    -4.4270    -0.8150 h1         1 954       0.055700
     43 H17          4.7180    -3.5450     0.3470 h1         1 954       0.055700
     44 H18          3.3430    -4.5320     0.9220 h1         1 954       0.055700
     45 H11          1.5180    -0.9390    -2.2850 hn         1 954       0.509000
     46 O            2.6460    -2.5410     2.3210 o          1 954      -0.519000
     47 N2           3.4250    -2.1350    -2.1920 n2         1 954      -0.883100
@<TRIPOS>BOND
     1     1     2 1   
     2     2     3 ar  
     3     2     6 ar  
     4     3     4 1   
     5     3     5 ar  
     6     4    28 1   
     7     4    29 1   
     8     4    30 1   
     9     5    10 ar  
    10     6     7 1   
    11     6     9 ar  
    12     7     8 1   
    13     8    31 1   
    14     8    32 1   
    15     8    33 1   
    16     9    10 ar  
    17    10    11 1   
    18    11    12 1   
    19    11    16 1   
    20    12    13 1   
    21    12    34 1   
    22    12    35 1   
    23    13    17 1   
    24    13    25 1   
    25    13    36 1   
    26    14    25 1   
    27    14    26 1   
    28    14    27 1   
    29    15    17 1   
    30    15    27 1   
    31    15    45 1   
    32    16    17 1   
    33    16    38 1   
    34    16    39 1   
    35    17    18 1   
    36    18    19 2   
    37    18    22 1   
    38    19    20 1   
    39    19    40 1   
    40    20    21 2   
    41    20    41 1   
    42    21    22 1   
    43    21    23 1   
    44    23    24 3   
    45    25    46 2   
    46    26    42 1   
    47    26    43 1   
    48    26    44 1   
    49    27    47 2   
    50    37    47 1   
@<TRIPOS>SUBSTRUCTURE
     1 954         1 TEMP              0 ****  ****    0 ROOT
