@<TRIPOS>MOLECULE
956
   45    48     1     0     0
SMALL
No Charge or Current Charge


@<TRIPOS>ATOM
      1 CAA         -3.4330     3.1690    -1.3050 ca         1 956      -0.154000
      2 CAB         -4.7770     2.9460    -0.9830 ca         1 956      -0.047000
      3 CAC         -5.1550     1.7500    -0.3550 ca         1 956      -0.174000
      4 CAD         -2.4680     2.2020    -0.9910 ca         1 956      -0.049000
      5 CAE         -2.8410     0.9910    -0.3570 ca         1 956      -0.163800
      6 CAF         -4.1960     0.7520    -0.0520 ca         1 956       0.127600
      7 NAG         -4.5680    -0.4750     0.6140 n          1 956      -0.282000
      8 CAH         -3.6230    -1.4630     1.0020 c          1 956       0.593200
      9 CAI         -2.2120    -1.1900     0.6590 cc         1 956      -0.210900
     10 CAJ         -1.8560    -0.0330     0.0140 cd         1 956       0.339800
     11 OAK         -3.9700    -2.4860     1.5850 o          1 956      -0.541000
     12 CAL         -6.0120    -0.7410     0.8680 c3         1 956       0.071300
     13 NAM         -0.5230     0.2260    -0.3250 nh         1 956      -0.708400
     14 CAN          0.0350    -0.1260    -1.6560 c6         1 956       0.199300
     15 CAO          1.3010    -1.0030    -1.4980 c6         1 956       0.069500
     16 NAP          2.3150    -0.3920    -0.5900 n          1 956      -0.402800
     17 CAQ          1.7450    -0.0360     0.7480 c6         1 956       0.069500
     18 CAR          0.4420     0.8080     0.6450 c6         1 956       0.199300
     19 CAS          3.5140     0.1560    -1.1000 c          1 956       0.641700
     20 OAT          3.6040     0.4580    -2.2840 o          1 956      -0.575100
     21 CAU          4.6640     0.3160    -0.1710 cc         1 956      -0.296600
     22 SAV          4.8440    -0.4760     1.3980 ss         1 956       0.242000
     23 CAW          6.4760     0.1610     1.5720 cc         1 956      -0.236000
     24 CAX          6.8380     0.8930     0.4700 cd         1 956      -0.141000
     25 CAY          5.8240     0.9670    -0.5220 cd         1 956      -0.075000
     26 CAZ         -1.2810    -2.1970     1.0330 cg         1 956       0.318700
     27 NBA         -0.5190    -3.0350     1.3160 n1         1 956      -0.473000
     28 HAA         -3.1370     4.0970    -1.7900 ha         1 956       0.123000
     29 HAB         -5.5260     3.7000    -1.2160 ha         1 956       0.119000
     30 HAC         -6.2050     1.6190    -0.1130 ha         1 956       0.126000
     31 HAD         -1.4310     2.4110    -1.2380 ha         1 956       0.121000
     32 HAL         -6.5740    -0.6430    -0.0690 h1         1 956       0.057367
     33 HALA        -6.1910    -1.7500     1.2590 h1         1 956       0.057367
     34 HALB        -6.3950    -0.0160     1.5980 h1         1 956       0.057367
     35 HAN         -0.7100    -0.6670    -2.2590 h1         1 956       0.063950
     36 HANA         0.2980     0.7890    -2.2050 h1         1 956       0.063950
     37 HAO          1.0040    -1.9770    -1.0850 h1         1 956       0.075700
     38 HAOA         1.7330    -1.1980    -2.4890 h1         1 956       0.075700
     39 HAQ          1.5380    -0.9590     1.3060 h1         1 956       0.075700
     40 HAQA         2.4510     0.5610     1.3370 h1         1 956       0.075700
     41 HAR          0.7070     1.8260     0.3250 h1         1 956       0.063950
     42 HARA        -0.0140     0.8930     1.6420 h1         1 956       0.063950
     43 HAW          7.0440    -0.0630     2.4650 h4         1 956       0.154000
     44 HAX          7.8130     1.3610     0.3600 ha         1 956       0.139000
     45 HAY          5.9590     1.4870    -1.4670 ha         1 956       0.146000
@<TRIPOS>BOND
     1     1     2 ar  
     2     1     4 ar  
     3     1    28 1   
     4     2     3 ar  
     5     2    29 1   
     6     3     6 ar  
     7     3    30 1   
     8     4     5 ar  
     9     4    31 1   
    10     5     6 ar  
    11     5    10 1   
    12     6     7 1   
    13     7     8 1   
    14     7    12 1   
    15     8     9 1   
    16     8    11 2   
    17     9    10 2   
    18     9    26 1   
    19    10    13 1   
    20    12    32 1   
    21    12    33 1   
    22    12    34 1   
    23    13    14 1   
    24    13    18 1   
    25    14    15 1   
    26    14    35 1   
    27    14    36 1   
    28    15    16 1   
    29    15    37 1   
    30    15    38 1   
    31    16    17 1   
    32    16    19 1   
    33    17    18 1   
    34    17    39 1   
    35    17    40 1   
    36    18    41 1   
    37    18    42 1   
    38    19    20 2   
    39    19    21 1   
    40    21    22 1   
    41    21    25 2   
    42    22    23 1   
    43    23    24 2   
    44    23    43 1   
    45    24    25 1   
    46    24    44 1   
    47    25    45 1   
    48    26    27 3   
@<TRIPOS>SUBSTRUCTURE
     1 956         1 TEMP              0 ****  ****    0 ROOT
