@<TRIPOS>MOLECULE
956
   45    48     1     0     0
SMALL
abcg2


@<TRIPOS>ATOM
      1 CAA         -2.8290     3.3650    -0.5070 ca         1 956      -0.154000
      2 CAB         -4.1060     3.2730     0.0410 ca         1 956      -0.047000
      3 CAC         -4.6410     2.0470     0.3740 ca         1 956      -0.174000
      4 CAD         -2.0800     2.2210    -0.6560 ca         1 956      -0.049000
      5 CAE         -2.5670     0.9660    -0.2600 ca         1 956      -0.163800
      6 CAF         -3.8980     0.8720     0.1940 ca         1 956       0.127600
      7 NAG         -4.4840    -0.3560     0.4190 n          1 956      -0.282000
      8 CAH         -3.8400    -1.5370     0.1390 c          1 956       0.593200
      9 CAI         -2.4440    -1.4410    -0.2480 cc         1 956      -0.210900
     10 CAJ         -1.7730    -0.2420    -0.4020 cd         1 956       0.339800
     11 OAK         -4.3910    -2.6230     0.2690 o          1 956      -0.541000
     12 CAL         -5.8590    -0.4140     0.8940 c3         1 956       0.071300
     13 NAM         -0.4520    -0.1530    -0.6970 nh         1 956      -0.708400
     14 CAN          0.2510    -1.0450    -1.6080 c6         1 956       0.199300
     15 CAO          1.3970    -1.7720    -0.9210 c6         1 956       0.069500
     16 NAP          2.2840    -0.8190    -0.2750 n          1 956      -0.402800
     17 CAQ          1.5750     0.0280     0.6680 c6         1 956       0.069500
     18 CAR          0.4420     0.7800    -0.0260 c6         1 956       0.199300
     19 CAS          3.4670    -0.5010    -0.8570 c          1 956       0.641700
     20 OAT          3.8050    -0.9240    -1.9520 o          1 956      -0.575100
     21 CAU          4.4080     0.3490    -0.0890 cc         1 956      -0.296600
     22 SAV          4.7920     0.0730     1.5690 ss         1 956       0.242000
     23 CAW          5.9840     1.2980     1.5560 cc         1 956      -0.236000
     24 CAX          6.0850     1.8940     0.3350 cd         1 956      -0.141000
     25 CAY          5.1910     1.3370    -0.6150 cd         1 956      -0.075000
     26 CAZ         -1.7960    -2.7000    -0.2660 cg         1 956       0.318700
     27 NBA         -1.2900    -3.7370    -0.2520 n1         1 956      -0.473000
     28 HAA         -2.4300     4.3200    -0.8180 ha         1 956       0.123000
     29 HAB         -4.7030     4.1640     0.1850 ha         1 956       0.119000
     30 HAC         -5.6500     2.0080     0.7560 ha         1 956       0.126000
     31 HAD         -1.1050     2.2980    -1.1130 ha         1 956       0.121000
     32 HAL         -6.5400     0.0190     0.1620 h1         1 956       0.057367
     33 HALA        -6.1340    -1.4480     1.0580 h1         1 956       0.057367
     34 HALB        -5.9570     0.1240     1.8350 h1         1 956       0.057367
     35 HAN         -0.4370    -1.7450    -2.0750 h1         1 956       0.063950
     36 HANA         0.6600    -0.4280    -2.4160 h1         1 956       0.063950
     37 HAO          1.0130    -2.4480    -0.1550 h1         1 956       0.075700
     38 HAOA         1.9460    -2.3650    -1.6470 h1         1 956       0.075700
     39 HAQ          1.1740    -0.5890     1.4760 h1         1 956       0.075700
     40 HAQA         2.2380     0.7650     1.1130 h1         1 956       0.075700
     41 HAR          0.8730     1.4870    -0.7420 h1         1 956       0.063950
     42 HARA        -0.0970     1.3470     0.7300 h1         1 956       0.063950
     43 HAW          6.5530     1.5110     2.4480 h4         1 956       0.154000
     44 HAX          6.7760     2.6950     0.1180 ha         1 956       0.139000
     45 HAY          5.1240     1.6580    -1.6440 ha         1 956       0.146000
@<TRIPOS>BOND
     1     1     2 ar  
     2     1     4 ar  
     3     1    28 1   
     4     2     3 ar  
     5     2    29 1   
     6     3     6 ar  
     7     3    30 1   
     8     4     5 ar  
     9     4    31 1   
    10     5     6 ar  
    11     5    10 1   
    12     6     7 1   
    13     7     8 1   
    14     7    12 1   
    15     8     9 1   
    16     8    11 2   
    17     9    10 2   
    18     9    26 1   
    19    10    13 1   
    20    12    32 1   
    21    12    33 1   
    22    12    34 1   
    23    13    14 1   
    24    13    18 1   
    25    14    15 1   
    26    14    35 1   
    27    14    36 1   
    28    15    16 1   
    29    15    37 1   
    30    15    38 1   
    31    16    17 1   
    32    16    19 1   
    33    17    18 1   
    34    17    39 1   
    35    17    40 1   
    36    18    41 1   
    37    18    42 1   
    38    19    20 2   
    39    19    21 1   
    40    21    22 1   
    41    21    25 2   
    42    22    23 1   
    43    23    24 2   
    44    23    43 1   
    45    24    25 1   
    46    24    44 1   
    47    25    45 1   
    48    26    27 3   
@<TRIPOS>SUBSTRUCTURE
     1 956         1 TEMP              0 ****  ****    0 ROOT
