@<TRIPOS>MOLECULE
957
   63    65     1     0     0
SMALL
abcg2


@<TRIPOS>ATOM
      1 C1          -0.7770     2.5210     0.4840 c3         1 957      -0.182100
      2 C2          -1.3330     1.4010    -0.3610 c          1 957       0.603100
      3 N3          -1.7910     0.3410     0.3300 ns         1 957      -0.510900
      4 C4          -2.2980    -0.8920    -0.2440 c3         1 957       0.101700
      5 C5          -1.2020    -1.6610    -1.0060 c3         1 957       0.143300
      6 C6           0.0240    -1.9050    -0.1380 c3         1 957       0.140800
      7 N7           1.0950    -2.4840    -0.9240 n7         1 957      -0.851400
      8 C8           2.3690    -2.4840    -0.2710 cx         1 957       0.205500
      9 C9           3.0010    -1.1450    -0.2930 cc         1 957      -0.186300
     10 C10          3.9300    -0.5830     0.5290 cd         1 957      -0.134000
     11 C11          4.3290     0.7320     0.1340 cd         1 957      -0.098300
     12 C12          3.6600     1.1360    -0.9830 cc         1 957      -0.264000
     13 S13          2.5720    -0.0590    -1.5640 ss         1 957       0.269000
     14 C14          5.3430     1.5580     0.8650 c3         1 957      -0.003100
     15 C15          6.8220     1.2720     0.5190 c3         1 957      -0.042000
     16 C16          7.1940    -0.1750     0.8370 c3         1 957      -0.083767
     17 C17          7.0890     1.5600    -0.9570 c3         1 957      -0.083767
     18 C18          7.6820     2.2040     1.3750 c3         1 957      -0.083767
     19 O19         -1.3410     1.4640    -1.5830 o          1 957      -0.604100
     20 C20         -3.5550    -0.6790    -1.1040 c3         1 957      -0.048100
     21 C21         -4.6220     0.0610    -0.3520 ca         1 957      -0.020300
     22 C22         -4.7940     1.4310    -0.5290 ca         1 957      -0.171000
     23 C23         -5.7650     2.0850     0.2050 ca         1 957       0.198000
     24 C24         -6.5800     1.4410     1.1160 ca         1 957      -0.202000
     25 C25         -6.3810     0.0810     1.2670 ca         1 957       0.198000
     26 C26         -5.4270    -0.6200     0.5580 ca         1 957      -0.171000
     27 F27         -5.9290     3.4040     0.0300 f          1 957      -0.174000
     28 F28         -7.1550    -0.5800     2.1390 f          1 957      -0.174000
     29 O29         -1.7070    -2.8740    -1.5260 oh         1 957      -0.647000
     30 C30          3.2470    -3.6890    -0.4470 cx         1 957      -0.137900
     31 C31          2.6460    -3.3980     0.8950 cx         1 957      -0.137900
     32 H1          -0.9840     2.4150     1.5470 hc         1 957       0.062367
     33 H1A          0.3060     2.5560     0.3510 hc         1 957       0.062367
     34 H1B         -1.1780     3.4730     0.1410 hc         1 957       0.062367
     35 HN3         -1.7480     0.3840     1.3330 hn         1 957       0.314500
     36 H4          -2.5900    -1.4990     0.6190 h1         1 957       0.038700
     37 H5          -0.8920    -1.0750    -1.8740 h1         1 957       0.118700
     38 H6           0.3770    -0.9530     0.2610 h1         1 957       0.036700
     39 H6A         -0.2550    -2.5200     0.7340 h1         1 957       0.036700
     40 HN7          0.8460    -3.4110    -1.2410 hn         1 957       0.436000
     41 H10          4.3240    -1.0790     1.4060 ha         1 957       0.127000
     42 H12          3.7400     2.0880    -1.4860 h4         1 957       0.147000
     43 H14          5.1500     2.6170     0.6690 hc         1 957       0.043200
     44 H14A         5.2100     1.4160     1.9430 hc         1 957       0.043200
     45 H16          6.6430    -0.8860     0.2180 hc         1 957       0.033033
     46 H16A         8.2580    -0.3430     0.6580 hc         1 957       0.033033
     47 H16B         6.9920    -0.4160     1.8830 hc         1 957       0.033033
     48 H17          6.8420     2.5940    -1.2090 hc         1 957       0.033033
     49 H17A         8.1440     1.4030    -1.1960 hc         1 957       0.033033
     50 H17B         6.5020     0.9100    -1.6080 hc         1 957       0.033033
     51 H18          7.5180     2.0280     2.4410 hc         1 957       0.033033
     52 H18A         8.7450     2.0510     1.1750 hc         1 957       0.033033
     53 H18B         7.4550     3.2530     1.1730 hc         1 957       0.033033
     54 H20         -3.2960    -0.1450    -2.0170 hc         1 957       0.077700
     55 H20A        -3.9330    -1.6580    -1.4000 hc         1 957       0.077700
     56 H22         -4.1820     1.9800    -1.2320 ha         1 957       0.140000
     57 H24         -7.3380     1.9710     1.6760 ha         1 957       0.150000
     58 H26         -5.3140    -1.6860     0.7100 ha         1 957       0.140000
     59 HO29        -1.9690    -3.4390    -0.7900 ho         1 957       0.430000
     60 H30          2.8560    -4.5240    -1.0170 hc         1 957       0.076450
     61 H30A         4.3080    -3.5170    -0.5830 hc         1 957       0.076450
     62 H31          3.2960    -3.0690     1.6960 hc         1 957       0.076450
     63 H31A         1.8250    -4.0240     1.2240 hc         1 957       0.076450
@<TRIPOS>BOND
     1     1     2 1   
     2     1    32 1   
     3     1    33 1   
     4     1    34 1   
     5     2     3 1   
     6     2    19 2   
     7     3     4 1   
     8     3    35 1   
     9     4     5 1   
    10     4    20 1   
    11     4    36 1   
    12     5     6 1   
    13     5    29 1   
    14     5    37 1   
    15     6     7 1   
    16     6    38 1   
    17     6    39 1   
    18     7     8 1   
    19     7    40 1   
    20     8     9 1   
    21     8    30 1   
    22     8    31 1   
    23     9    10 2   
    24     9    13 1   
    25    10    11 1   
    26    10    41 1   
    27    11    12 2   
    28    11    14 1   
    29    12    13 1   
    30    12    42 1   
    31    14    15 1   
    32    14    43 1   
    33    14    44 1   
    34    15    16 1   
    35    15    17 1   
    36    15    18 1   
    37    16    45 1   
    38    16    46 1   
    39    16    47 1   
    40    17    48 1   
    41    17    49 1   
    42    17    50 1   
    43    18    51 1   
    44    18    52 1   
    45    18    53 1   
    46    20    21 1   
    47    20    54 1   
    48    20    55 1   
    49    21    22 ar  
    50    21    26 ar  
    51    22    23 ar  
    52    22    56 1   
    53    23    24 ar  
    54    23    27 1   
    55    24    25 ar  
    56    24    57 1   
    57    25    26 ar  
    58    25    28 1   
    59    26    58 1   
    60    29    59 1   
    61    30    31 1   
    62    30    60 1   
    63    30    61 1   
    64    31    62 1   
    65    31    63 1   
@<TRIPOS>SUBSTRUCTURE
     1 957         1 TEMP              0 ****  ****    0 ROOT
