@<TRIPOS>MOLECULE
957
   63    65     1     0     0
SMALL
No Charge or Current Charge


@<TRIPOS>ATOM
      1 C1          -0.7810     2.7420    -0.3660 c3         1 957      -0.182100
      2 C2          -1.3260     1.4180    -0.8790 c          1 957       0.603100
      3 N3          -1.5170     0.4630     0.0960 ns         1 957      -0.510900
      4 C4          -2.0510    -0.8960    -0.1140 c3         1 957       0.101700
      5 C5          -1.1590    -1.7650    -1.0620 c3         1 957       0.143300
      6 C6           0.3450    -1.7490    -0.6580 c3         1 957       0.140800
      7 N7           1.1660    -2.5710    -1.5800 n7         1 957      -0.851400
      8 C8           2.5550    -2.7100    -1.2180 cx         1 957       0.205500
      9 C9           3.2660    -1.4200    -1.2160 cc         1 957      -0.186300
     10 C10          3.6140    -0.6130    -0.1610 cd         1 957      -0.134000
     11 C11          4.3000     0.5810    -0.5220 cd         1 957      -0.098300
     12 C12          4.4580     0.6890    -1.8820 cc         1 957      -0.264000
     13 S13          3.7850    -0.6970    -2.7330 ss         1 957       0.269000
     14 C14          4.7620     1.6160     0.4800 c3         1 957      -0.003100
     15 C15          6.1850     1.3770     1.0780 c3         1 957      -0.042000
     16 C16          6.2440     0.0240     1.8360 c3         1 957      -0.083767
     17 C17          7.2550     1.3820    -0.0470 c3         1 957      -0.083767
     18 C18          6.5040     2.5220     2.0760 c3         1 957      -0.083767
     19 O19         -1.5710     1.2250    -2.0600 o          1 957      -0.604100
     20 C20         -3.5400    -0.8530    -0.5530 c3         1 957      -0.048100
     21 C21         -4.3960     0.0500     0.3280 ca         1 957      -0.020300
     22 C22         -4.8380     1.3020    -0.1440 ca         1 957      -0.171000
     23 C23         -5.6150     2.1330     0.6770 ca         1 957       0.198000
     24 C24         -5.9610     1.7290     1.9740 ca         1 957      -0.202000
     25 C25         -5.5240     0.4850     2.4460 ca         1 957       0.198000
     26 C26         -4.7450    -0.3530     1.6320 ca         1 957      -0.171000
     27 F27         -6.0300     3.3330     0.2160 f          1 957      -0.174000
     28 F28         -5.8530     0.0890     3.6950 f          1 957      -0.174000
     29 O29         -1.6400    -3.1310    -1.0870 oh         1 957      -0.647000
     30 C30          3.2810    -3.9520    -1.6680 cx         1 957      -0.137900
     31 C31          2.9260    -3.7700    -0.2110 cx         1 957      -0.137900
     32 H1          -1.4430     3.1190     0.4220 hc         1 957       0.062367
     33 H1A          0.1510     2.5570     0.1800 hc         1 957       0.062367
     34 H1B         -0.6420     3.4790    -1.1650 hc         1 957       0.062367
     35 HN3         -1.2900     0.7420     1.0430 hn         1 957       0.314500
     36 H4          -2.0260    -1.3760     0.8740 h1         1 957       0.038700
     37 H5          -1.2240    -1.3340    -2.0710 h1         1 957       0.118700
     38 H6           0.7060    -0.7120    -0.6630 h1         1 957       0.036700
     39 H6A          0.4370    -2.1220     0.3710 h1         1 957       0.036700
     40 HN7          0.7370    -3.5020    -1.6230 hn         1 957       0.436000
     41 H10          3.3820    -0.8680     0.8690 ha         1 957       0.127000
     42 H12          4.9260     1.4810    -2.4520 h4         1 957       0.147000
     43 H14          4.7370     2.6060     0.0080 hc         1 957       0.043200
     44 H14A         4.0360     1.6650     1.3010 hc         1 957       0.043200
     45 H16          6.0990    -0.8220     1.1540 hc         1 957       0.033033
     46 H16A         7.2180    -0.1090     2.3240 hc         1 957       0.033033
     47 H16B         5.4690    -0.0260     2.6110 hc         1 957       0.033033
     48 H17          7.2170     2.3160    -0.6200 hc         1 957       0.033033
     49 H17A         8.2640     1.2830     0.3720 hc         1 957       0.033033
     50 H17B         7.1040     0.5490    -0.7440 hc         1 957       0.033033
     51 H18          5.7730     2.5450     2.8930 hc         1 957       0.033033
     52 H18A         7.5000     2.3930     2.5180 hc         1 957       0.033033
     53 H18B         6.4830     3.4970     1.5740 hc         1 957       0.033033
     54 H20         -3.6000    -0.5280    -1.5980 hc         1 957       0.077700
     55 H20A        -3.9510    -1.8700    -0.5360 hc         1 957       0.077700
     56 H22         -4.5770     1.6350    -1.1450 ha         1 957       0.140000
     57 H24         -6.5610     2.3750     2.6070 ha         1 957       0.150000
     58 H26         -4.4140    -1.3140     2.0160 ha         1 957       0.140000
     59 HO29        -1.5240    -3.4980    -0.1840 ho         1 957       0.430000
     60 H30          2.7250    -4.6920    -2.2380 hc         1 957       0.076450
     61 H30A         4.3260    -3.8540    -1.9480 hc         1 957       0.076450
     62 H31          3.7350    -3.5500     0.4820 hc         1 957       0.076450
     63 H31A         2.1310    -4.3870     0.2000 hc         1 957       0.076450
@<TRIPOS>BOND
     1     1     2 1   
     2     1    32 1   
     3     1    33 1   
     4     1    34 1   
     5     2     3 1   
     6     2    19 2   
     7     3     4 1   
     8     3    35 1   
     9     4     5 1   
    10     4    20 1   
    11     4    36 1   
    12     5     6 1   
    13     5    29 1   
    14     5    37 1   
    15     6     7 1   
    16     6    38 1   
    17     6    39 1   
    18     7     8 1   
    19     7    40 1   
    20     8     9 1   
    21     8    30 1   
    22     8    31 1   
    23     9    10 2   
    24     9    13 1   
    25    10    11 1   
    26    10    41 1   
    27    11    12 2   
    28    11    14 1   
    29    12    13 1   
    30    12    42 1   
    31    14    15 1   
    32    14    43 1   
    33    14    44 1   
    34    15    16 1   
    35    15    17 1   
    36    15    18 1   
    37    16    45 1   
    38    16    46 1   
    39    16    47 1   
    40    17    48 1   
    41    17    49 1   
    42    17    50 1   
    43    18    51 1   
    44    18    52 1   
    45    18    53 1   
    46    20    21 1   
    47    20    54 1   
    48    20    55 1   
    49    21    22 ar  
    50    21    26 ar  
    51    22    23 ar  
    52    22    56 1   
    53    23    24 ar  
    54    23    27 1   
    55    24    25 ar  
    56    24    57 1   
    57    25    26 ar  
    58    25    28 1   
    59    26    58 1   
    60    29    59 1   
    61    30    31 1   
    62    30    60 1   
    63    30    61 1   
    64    31    62 1   
    65    31    63 1   
@<TRIPOS>SUBSTRUCTURE
     1 957         1 TEMP              0 ****  ****    0 ROOT
