@<TRIPOS>MOLECULE
958
   50    53     1     0     0
SMALL
bcc


@<TRIPOS>ATOM
      1 C4           2.5030    -0.5690     0.3570 cc         1 958       0.551200
      2 C5           2.1840    -0.4420    -0.9670 cd         1 958      -0.389200
      3 C6           2.3770    -1.4760    -1.9090 c          1 958       0.782100
      4 C8           1.8660     1.4310     0.1340 cd         1 958       0.742400
      5 N1           2.8440    -2.6540    -1.3020 n          1 958      -0.504400
      6 N3           2.9920    -1.7320     0.8670 n          1 958      -0.425300
      7 CAT         -5.3320     0.2870     1.3810 ca         1 958      -0.081300
      8 CAU         -4.4370     0.9430     0.5480 ca         1 958      -0.081000
      9 CAS         -4.9250    -0.9050     1.9830 ca         1 958      -0.104000
     10 CAR         -3.6610    -1.4250     1.7550 ca         1 958      -0.134000
     11 CAQ         -2.7710    -0.7670     0.9190 ca         1 958      -0.092000
     12 CAP         -3.1620     0.4230     0.3130 ca         1 958      -0.147500
     13 CAN         -2.2600     1.1480    -0.5650 cc         1 958       0.538900
     14 OAO         -1.0400     0.6480    -0.8280 os         1 958      -0.354800
     15 NAM         -2.4450     2.2700    -1.1710 nd         1 958      -0.364000
     16 NAL         -1.2950     2.5420    -1.8620 nd         1 958      -0.349000
     17 CAK         -0.4940     1.5670    -1.6380 cc         1 958       0.428700
     18 N7           1.7710     0.8840    -1.1120 na         1 958      -0.188900
     19 O6           2.1700    -1.4130    -3.1130 o          1 958      -0.627500
     20 CAY          3.0570    -3.8300    -2.1360 c3         1 958       0.085300
     21 C2           3.1700    -2.8110     0.0360 c          1 958       0.823500
     22 O2           3.6020    -3.8660     0.4630 o          1 958      -0.629500
     23 CAW          3.3340    -1.8680     2.2720 c3         1 958       0.100300
     24 N9           2.3180     0.5730     1.0380 nc         1 958      -0.767000
     25 NBA          1.4740     2.6870     0.4110 nh         1 958      -0.784300
     26 CBC          1.2710     3.0500     1.8000 c3         1 958       0.208600
     27 CBB          1.7650     3.7910    -0.4920 c3         1 958       0.208600
     28 H1          -7.4540     0.2620     1.0570 hc         1 958       0.046367
     29 H2          -6.9840     0.7700     2.6710 hc         1 958       0.046367
     30 H3          -6.7900     1.8710     1.3060 hc         1 958       0.046367
     31 H4          -4.7280     1.8720     0.0740 ha         1 958       0.154000
     32 H5          -5.6060    -1.4290     2.6420 ha         1 958       0.134000
     33 H6          -3.3630    -2.3490     2.2320 ha         1 958       0.138000
     34 H7          -1.7860    -1.1830     0.7520 ha         1 958       0.148000
     35 H8           0.8690     0.5920    -2.9420 h1         1 958       0.108200
     36 H9           1.2300     2.2690    -2.6210 h1         1 958       0.108200
     37 H10          4.1150    -4.0780    -2.1950 h1         1 958       0.057367
     38 H11          2.5160    -4.6840    -1.7360 h1         1 958       0.057367
     39 H12          2.6920    -3.6210    -3.1340 h1         1 958       0.057367
     40 H13          2.7490    -2.6610     2.7340 h1         1 958       0.059367
     41 H14          4.3930    -2.0900     2.3930 h1         1 958       0.059367
     42 H15          3.1110    -0.9320     2.7710 h1         1 958       0.059367
     43 H16          2.2040     3.3370     2.2920 h1         1 958       0.049033
     44 H17          0.5860     3.8960     1.8400 h1         1 958       0.049033
     45 H18          0.8260     2.2250     2.3490 h1         1 958       0.049033
     46 H19          2.2800     4.5770     0.0600 h1         1 958       0.049033
     47 H20          2.4320     3.4820    -1.2930 h1         1 958       0.049033
     48 H21          0.8580     4.2120    -0.9260 h1         1 958       0.049033
     49 CAJ          0.8820     1.3480    -2.1580 c3         1 958       0.027000
     50 CAV         -6.7100     0.8310     1.6170 c3         1 958      -0.048800
@<TRIPOS>BOND
     1     1     2 2   
     2     1     6 1   
     3     1    24 1   
     4     2     3 1   
     5     2    18 1   
     6     3     5 1   
     7     3    19 2   
     8     4    18 1   
     9     4    24 2   
    10     4    25 1   
    11     5    20 1   
    12     5    21 1   
    13     6    21 1   
    14     6    23 1   
    15     7     8 ar  
    16     7     9 ar  
    17     7    50 1   
    18     8    12 ar  
    19     8    31 1   
    20     9    10 ar  
    21     9    32 1   
    22    10    11 ar  
    23    10    33 1   
    24    11    12 ar  
    25    11    34 1   
    26    12    13 1   
    27    13    14 1   
    28    13    15 2   
    29    14    17 1   
    30    15    16 1   
    31    16    17 2   
    32    17    49 1   
    33    18    49 1   
    34    20    37 1   
    35    20    38 1   
    36    20    39 1   
    37    21    22 2   
    38    23    40 1   
    39    23    41 1   
    40    23    42 1   
    41    25    26 1   
    42    25    27 1   
    43    26    43 1   
    44    26    44 1   
    45    26    45 1   
    46    27    46 1   
    47    27    47 1   
    48    27    48 1   
    49    28    50 1   
    50    29    50 1   
    51    30    50 1   
    52    35    49 1   
    53    36    49 1   
@<TRIPOS>SUBSTRUCTURE
     1 958         1 TEMP              0 ****  ****    0 ROOT
