@<TRIPOS>MOLECULE
958
   50    53     1     0     0
SMALL
No Charge or Current Charge


@<TRIPOS>ATOM
      1 C4           2.8250    -0.6580     0.2710 cc         1 958       0.485900
      2 C5           2.3310    -0.5880    -0.9880 cd         1 958      -0.374600
      3 C6           2.5300    -1.6710    -1.9570 c          1 958       0.639600
      4 C8           1.8400     1.2030     0.2070 cd         1 958       0.742400
      5 N1           3.2710    -2.7520    -1.4610 n          1 958      -0.370400
      6 N3           3.5410    -1.7430     0.7140 n          1 958      -0.358300
      7 CAT         -5.6100     0.6340     1.3630 ca         1 958      -0.081300
      8 CAU         -4.6960     1.1380     0.4170 ca         1 958      -0.063000
      9 CAS         -5.2170    -0.4100     2.2190 ca         1 958      -0.086000
     10 CAR         -3.9200    -0.9410     2.1330 ca         1 958      -0.116000
     11 CAQ         -3.0100    -0.4360     1.1910 ca         1 958      -0.074000
     12 CAP         -3.3890     0.6100     0.3190 ca         1 958      -0.147500
     13 CAN         -2.4420     1.1470    -0.6670 cc         1 958       0.494500
     14 OAO         -1.2010     0.6070    -0.7620 os         1 958      -0.266000
     15 NAM         -2.6400     2.1390    -1.5220 nd         1 958      -0.364000
     16 NAL         -1.4670     2.2830    -2.2200 nd         1 958      -0.349000
     17 CAK         -0.6420     1.3680    -1.7360 cc         1 958       0.384300
     18 N7           1.6560     0.6330    -1.0500 na         1 958      -0.167500
     19 O6           2.0840    -1.6340    -3.0940 o          1 958      -0.552000
     20 CAY          3.5250    -3.9040    -2.3700 c3         1 958       0.085300
     21 C2           3.7670    -2.8280    -0.1470 c          1 958       0.614000
     22 O2           4.3770    -3.8160     0.2400 o          1 958      -0.554000
     23 CAW          4.0670    -1.8140     2.1020 c3         1 958       0.100300
     24 N9           2.5170     0.4310     1.0230 nc         1 958      -0.767000
     25 NBA          1.3200     2.4260     0.6180 nh         1 958      -0.784300
     26 CBC          0.9660     2.6510     2.0360 c3         1 958       0.208600
     27 CBB          1.4170     3.6360    -0.2280 c3         1 958       0.208600
     28 H1          -7.6850     0.7170     0.7390 hc         1 958       0.046367
     29 H2          -7.4390     1.0820     2.4550 hc         1 958       0.046367
     30 H3          -7.0200     2.2840     1.2290 hc         1 958       0.046367
     31 H4          -5.0090     1.9440    -0.2450 ha         1 958       0.136000
     32 H5          -5.9150    -0.8100     2.9520 ha         1 958       0.116000
     33 H6          -3.6200    -1.7480     2.7990 ha         1 958       0.120000
     34 H7          -2.0090    -0.8620     1.1440 ha         1 958       0.130000
     35 H8           0.7780     0.4100    -2.9700 h1         1 958       0.108200
     36 H9           1.2060     2.0610    -2.5400 h1         1 958       0.108200
     37 H10          4.5250    -4.3210    -2.1930 h1         1 958       0.057367
     38 H11          2.7760    -4.6860    -2.1890 h1         1 958       0.057367
     39 H12          3.4770    -3.6020    -3.4230 h1         1 958       0.057367
     40 H13          3.4260    -2.4710     2.7040 h1         1 958       0.059367
     41 H14          5.0890    -2.2150     2.1000 h1         1 958       0.059367
     42 H15          4.0960    -0.8220     2.5680 h1         1 958       0.059367
     43 H16          1.8680     2.8590     2.6280 h1         1 958       0.049033
     44 H17          0.2790     3.5010     2.1380 h1         1 958       0.049033
     45 H18          0.4720     1.7650     2.4560 h1         1 958       0.049033
     46 H19          1.7020     4.5090     0.3740 h1         1 958       0.049033
     47 H20          2.1780     3.5080    -1.0090 h1         1 958       0.049033
     48 H21          0.4530     3.8510    -0.7060 h1         1 958       0.049033
     49 CAJ          0.7870     1.1280    -2.1460 c3         1 958       0.056300
     50 CAV         -7.0150     1.2110     1.4520 c3         1 958      -0.048800
@<TRIPOS>BOND
     1     1     2 2   
     2     1     6 1   
     3     1    24 1   
     4     2     3 1   
     5     2    18 1   
     6     3     5 1   
     7     3    19 2   
     8     4    18 1   
     9     4    24 2   
    10     4    25 1   
    11     5    20 1   
    12     5    21 1   
    13     6    21 1   
    14     6    23 1   
    15     7     8 ar  
    16     7     9 ar  
    17     7    50 1   
    18     8    12 ar  
    19     8    31 1   
    20     9    10 ar  
    21     9    32 1   
    22    10    11 ar  
    23    10    33 1   
    24    11    12 ar  
    25    11    34 1   
    26    12    13 1   
    27    13    14 1   
    28    13    15 2   
    29    14    17 1   
    30    15    16 1   
    31    16    17 2   
    32    17    49 1   
    33    18    49 1   
    34    20    37 1   
    35    20    38 1   
    36    20    39 1   
    37    21    22 2   
    38    23    40 1   
    39    23    41 1   
    40    23    42 1   
    41    25    26 1   
    42    25    27 1   
    43    26    43 1   
    44    26    44 1   
    45    26    45 1   
    46    27    46 1   
    47    27    47 1   
    48    27    48 1   
    49    28    50 1   
    50    29    50 1   
    51    30    50 1   
    52    35    49 1   
    53    36    49 1   
@<TRIPOS>SUBSTRUCTURE
     1 958         1 TEMP              0 ****  ****    0 ROOT
