@<TRIPOS>MOLECULE
959
   28    28     1     0     0
SMALL
No Charge or Current Charge


@<TRIPOS>ATOM
      1 O15          3.8200    -1.9090    -0.0200 o          1 959      -0.518100
      2 C13          4.3100    -0.7840    -0.0230 c          1 959       0.561100
      3 C16          5.8230    -0.5780    -0.0260 c3         1 959      -0.200100
      4 C12          3.4490     0.5010    -0.0230 c3         1 959       0.011000
      5 N10          1.9990     0.2080    -0.0200 ns         1 959      -0.498900
      6 C9           1.0160     1.1530    -0.0190 c          1 959       0.641100
      7 O11          1.2050     2.3590    -0.0210 o          1 959      -0.551000
      8 O8          -0.1940     0.5320    -0.0160 os         1 959      -0.454100
      9 C7          -1.3650     1.3640    -0.0160 c3         1 959       0.231900
     10 C5          -2.5930     0.4630    -0.0120 ca         1 959      -0.102300
     11 C6          -3.1630     0.0420     1.2060 ca         1 959      -0.084500
     12 C1          -4.2970    -0.7890     1.2090 ca         1 959      -0.115500
     13 C2          -4.8680    -1.2050    -0.0060 ca         1 959      -0.097000
     14 C3          -4.3030    -0.7900    -1.2240 ca         1 959      -0.115500
     15 C4          -3.1690     0.0410    -1.2270 ca         1 959      -0.084500
     16 H16          6.3800    -1.5220    -0.0250 hc         1 959       0.066700
     17 H16A         6.0940     0.0530    -0.8800 hc         1 959       0.066700
     18 H16B         6.0970     0.0560     0.8250 hc         1 959       0.066700
     19 H12          3.7080     1.0890     0.8670 h1         1 959       0.070200
     20 H12A         3.7050     1.0870    -0.9150 h1         1 959       0.070200
     21 HN10         1.6880    -0.7570    -0.0180 hn         1 959       0.351500
     22 H7          -1.3830     2.0110     0.8710 h1         1 959       0.056200
     23 H7A         -1.3860     2.0090    -0.9040 h1         1 959       0.056200
     24 H6          -2.7260     0.3570     2.1510 ha         1 959       0.114500
     25 H1          -4.7330    -1.1110     2.1520 ha         1 959       0.114500
     26 H2          -5.7460    -1.8480    -0.0030 ha         1 959       0.113000
     27 H3          -4.7430    -1.1130    -2.1650 ha         1 959       0.114500
     28 H4          -2.7360     0.3550    -2.1750 ha         1 959       0.114500
@<TRIPOS>BOND
     1     1     2 2   
     2     2     3 1   
     3     2     4 1   
     4     3    16 1   
     5     3    17 1   
     6     3    18 1   
     7     4     5 1   
     8     4    19 1   
     9     4    20 1   
    10     5     6 1   
    11     5    21 1   
    12     6     7 2   
    13     6     8 1   
    14     8     9 1   
    15     9    10 1   
    16     9    22 1   
    17     9    23 1   
    18    10    11 ar  
    19    10    15 ar  
    20    11    12 ar  
    21    11    24 1   
    22    12    13 ar  
    23    12    25 1   
    24    13    14 ar  
    25    13    26 1   
    26    14    15 ar  
    27    14    27 1   
    28    15    28 1   
@<TRIPOS>SUBSTRUCTURE
     1 959         1 TEMP              0 ****  ****    0 ROOT
