@<TRIPOS>MOLECULE
959
   28    28     1     0     0
SMALL
abcg2


@<TRIPOS>ATOM
      1 O15          3.7800    -1.8650     0.1730 o          1 959      -0.518100
      2 C13          4.2470    -0.7530     0.0890 c          1 959       0.561100
      3 C16          5.7200    -0.4800     0.0490 c3         1 959      -0.200100
      4 C12          3.3640     0.4690    -0.0090 c3         1 959       0.011000
      5 N10          1.9800     0.1010    -0.0530 ns         1 959      -0.498900
      6 C9           1.0090     1.0280    -0.0770 c          1 959       0.641100
      7 O11          1.2000     2.2280    -0.0860 o          1 959      -0.551000
      8 O8          -0.2010     0.4590    -0.0940 os         1 959      -0.454100
      9 C7          -1.3310     1.3390    -0.0940 c3         1 959       0.231900
     10 C5          -2.5550     0.4750    -0.0560 ca         1 959      -0.102300
     11 C6          -2.9860    -0.0800     1.1470 ca         1 959      -0.084500
     12 C1          -4.1060    -0.8980     1.1840 ca         1 959      -0.115500
     13 C2          -4.8090    -1.1680     0.0160 ca         1 959      -0.097000
     14 C3          -4.3880    -0.6180    -1.1860 ca         1 959      -0.115500
     15 C4          -3.2640     0.1980    -1.2200 ca         1 959      -0.084500
     16 H16          6.2900    -1.3510     0.3620 hc         1 959       0.066700
     17 H16A         6.0060    -0.2250    -0.9740 hc         1 959       0.066700
     18 H16B         5.9830     0.3740     0.6730 hc         1 959       0.066700
     19 H12          3.5870     1.1110     0.8500 h1         1 959       0.070200
     20 H12A         3.6680     1.0370    -0.8950 h1         1 959       0.070200
     21 HN10         1.7500    -0.8800    -0.0180 hn         1 959       0.351500
     22 H7          -1.2940     1.9950     0.7790 h1         1 959       0.056200
     23 H7A         -1.3260     1.9640    -0.9890 h1         1 959       0.056200
     24 H6          -2.4450     0.1330     2.0620 ha         1 959       0.114500
     25 H1          -4.4320    -1.3220     2.1250 ha         1 959       0.114500
     26 H2          -5.6860    -1.8020     0.0460 ha         1 959       0.113000
     27 H3          -4.9330    -0.8210    -2.0990 ha         1 959       0.114500
     28 H4          -2.9390     0.6260    -2.1620 ha         1 959       0.114500
@<TRIPOS>BOND
     1     1     2 2   
     2     2     3 1   
     3     2     4 1   
     4     3    16 1   
     5     3    17 1   
     6     3    18 1   
     7     4     5 1   
     8     4    19 1   
     9     4    20 1   
    10     5     6 1   
    11     5    21 1   
    12     6     7 2   
    13     6     8 1   
    14     8     9 1   
    15     9    10 1   
    16     9    22 1   
    17     9    23 1   
    18    10    11 ar  
    19    10    15 ar  
    20    11    12 ar  
    21    11    24 1   
    22    12    13 ar  
    23    12    25 1   
    24    13    14 ar  
    25    13    26 1   
    26    14    15 ar  
    27    14    27 1   
    28    15    28 1   
@<TRIPOS>SUBSTRUCTURE
     1 959         1 TEMP              0 ****  ****    0 ROOT
