@<TRIPOS>MOLECULE
95A
   87    90     1     0     0
SMALL
No Charge or Current Charge


@<TRIPOS>ATOM
      1 C42          0.3820    -1.7830     3.0600 c          1 95A       0.498100
      2 C44         -0.7030    -2.9130     2.7200 c          1 95A       0.519100
      3 C46         -1.9450    -3.0380     3.6380 c3         1 95A      -0.147700
      4 C48         -3.2330    -2.6580     2.8620 c3         1 95A      -0.084100
      5 C47         -2.0110    -4.4470     4.2900 c3         1 95A      -0.066400
      6 C49         -3.0800    -4.5910     5.3940 c3         1 95A      -0.090100
      7 O45         -0.5530    -3.6480     1.7430 o          1 95A      -0.518100
      8 O43          0.2480    -0.9430     3.9450 o          1 95A      -0.604100
      9 N41          1.4900    -1.7860     2.2270 ns         1 95A      -0.481900
     10 C15          2.6780    -0.8960     2.3310 c3         1 95A       0.033700
     11 C16          2.3930     0.5570     1.8040 c          1 95A       0.578100
     12 O17          3.1920     1.1910     1.1320 o          1 95A      -0.578100
     13 C14          3.9330    -1.5910     1.7050 c3         1 95A      -0.019100
     14 C60          3.6240    -2.4910     0.5010 ca         1 95A      -0.140300
     15 C61          2.8940    -1.9860    -0.5860 ca         1 95A      -0.059000
     16 C59          4.0200    -3.8420     0.4840 ca         1 95A      -0.060000
     17 C56          2.4680    -2.8160    -1.6510 cp         1 95A      -0.077000
     18 C58          3.6630    -4.6710    -0.5950 ca         1 95A      -0.210000
     19 C57          2.8810    -4.1730    -1.6520 ca         1 95A       0.162100
     20 O13          2.5030    -5.0260    -2.6470 oh         1 95A      -0.524100
     21 N18          1.1410     1.0650     2.1120 ns         1 95A      -0.504900
     22 C19          0.6660     2.4610     1.9090 c3         1 95A       0.053700
     23 C24          0.3480     2.7620     0.4120 c          1 95A       0.616100
     24 O25          1.1540     3.2510    -0.3680 o          1 95A      -0.618100
     25 C20          1.6050     3.5100     2.5650 c3         1 95A      -0.173400
     26 C21          0.9160     4.8690     2.6680 c          1 95A       0.619100
     27 O22          0.1160     5.1450     3.5440 o          1 95A      -0.619100
     28 N23          1.2340     5.7740     1.7220 nt         1 95A      -0.599000
     29 C50         -0.3490    -0.7300    -3.1320 ca         1 95A      -0.177300
     30 C51         -0.1290    -0.8000    -4.5170 ca         1 95A      -0.037000
     31 C52          0.9240    -1.6200    -4.9850 ca         1 95A      -0.146000
     32 C53          1.7660    -2.3150    -4.0780 ca         1 95A      -0.041000
     33 C54          1.5530    -2.2280    -2.6770 cp         1 95A      -0.050000
     34 C55          0.4510    -1.4520    -2.2770 ca         1 95A      -0.002000
     35 N31         -0.0000    -1.2380    -0.9850 ns         1 95A      -0.129000
     36 C32         -1.0730    -0.4000    -0.8370 c          1 95A       0.537000
     37 O33         -1.7150    -0.2540     0.1990 o          1 95A      -0.522000
     38 N26         -0.9410     2.4890     0.0010 ns         1 95A      -0.476900
     39 C27         -1.4910     2.6850    -1.3780 c3         1 95A      -0.015300
     40 C35         -3.0450     2.6910    -1.3450 c          1 95A       0.615100
     41 O37         -3.6850     2.4090    -0.3390 o          1 95A      -0.567100
     42 C28         -0.9230     1.6920    -2.4500 c3         1 95A       0.201300
     43 O34          0.5060     1.8590    -2.5030 oh         1 95A      -0.652000
     44 C29         -1.3010     0.1590    -2.3170 c5         1 95A       0.154300
     45 O30         -2.6630    -0.0460    -2.7320 oh         1 95A      -0.630000
     46 C40         -4.8320     3.9310    -5.1930 c3         1 95A      -0.047900
     47 C39         -5.5800     3.5550    -3.9270 c2         1 95A      -0.301200
     48 C38         -5.0490     3.1770    -2.7530 c2         1 95A      -0.059400
     49 N36         -3.6670     3.0740    -2.5200 ns         1 95A      -0.407100
     50 H46         -1.8310    -2.3060     4.4460 hc         1 95A       0.083700
     51 H481        -4.1020    -2.6190     3.5300 hc         1 95A       0.051033
     52 H482        -3.1270    -1.6700     2.3990 hc         1 95A       0.051033
     53 H483        -3.4420    -3.3860     2.0680 hc         1 95A       0.051033
     54 H471        -2.1900    -5.2050     3.5170 hc         1 95A       0.047700
     55 H472        -1.0330    -4.6790     4.7320 hc         1 95A       0.047700
     56 H491        -2.9400    -3.8310     6.1730 hc         1 95A       0.035367
     57 H492        -4.0910    -4.4870     4.9830 hc         1 95A       0.035367
     58 H493        -3.0090    -5.5790     5.8650 hc         1 95A       0.035367
     59 H41          1.5310    -2.5450     1.5510 hn         1 95A       0.346500
     60 H15          2.8870    -0.7580     3.4000 h1         1 95A       0.076700
     61 H141         4.6980    -0.8490     1.4450 hc         1 95A       0.067200
     62 H142         4.3890    -2.2020     2.4940 hc         1 95A       0.067200
     63 H61          2.6180    -0.9350    -0.5940 ha         1 95A       0.155000
     64 H59          4.5940    -4.2560     1.3110 ha         1 95A       0.113000
     65 H58          3.9740    -5.7130    -0.5860 ha         1 95A       0.116000
     66 H13          2.8740    -5.9110    -2.4500 ho         1 95A       0.466000
     67 H18          0.5810     0.4600     2.7100 hn         1 95A       0.346500
     68 H19         -0.2950     2.5320     2.4350 h1         1 95A       0.094700
     69 H201         1.8530     3.1720     3.5770 hc         1 95A       0.074700
     70 H202         2.5160     3.6000     1.9620 hc         1 95A       0.074700
     71 H231         1.8790     5.5290     0.9850 hn         1 95A       0.315000
     72 H232         0.8060     6.6870     1.7480 hn         1 95A       0.315000
     73 H51         -0.7380    -0.2240    -5.2100 ha         1 95A       0.119000
     74 H52          1.1160    -1.6880    -6.0530 ha         1 95A       0.117000
     75 H53          2.6020    -2.8960    -4.4600 ha         1 95A       0.122000
     76 H31          0.3290    -1.8090    -0.2190 hn         1 95A       0.173000
     77 H26         -1.5610     2.0770     0.6960 hn         1 95A       0.354500
     78 H27         -1.2120     3.6980    -1.6960 h1         1 95A       0.087700
     79 H28         -1.3230     2.0100    -3.4220 h1         1 95A       0.041700
     80 H34          0.7690     2.4410    -1.7380 ho         1 95A       0.484000
     81 H30         -2.7770    -1.0120    -2.8760 ho         1 95A       0.467000
     82 H401        -3.7440     3.8660    -5.0780 hc         1 95A       0.034700
     83 H402        -5.1140     3.2710    -6.0220 hc         1 95A       0.034700
     84 H403        -5.0700     4.9590    -5.4940 hc         1 95A       0.034700
     85 H36         -3.0500     3.3000    -3.2900 hn         1 95A       0.318500
     86 H391        -6.6670     3.6090    -4.0280 ha         1 95A       0.182000
     87 H381        -5.6690     2.9200    -1.8880 h4         1 95A       0.211000
@<TRIPOS>BOND
     1     1     2 1   
     2     1     8 2   
     3     1     9 1   
     4     2     3 1   
     5     2     7 2   
     6     3     4 1   
     7     3     5 1   
     8     3    50 1   
     9     4    51 1   
    10     4    52 1   
    11     4    53 1   
    12     5     6 1   
    13     5    54 1   
    14     5    55 1   
    15     6    56 1   
    16     6    57 1   
    17     6    58 1   
    18     9    10 1   
    19     9    59 1   
    20    10    11 1   
    21    10    13 1   
    22    10    60 1   
    23    11    12 2   
    24    11    21 1   
    25    13    14 1   
    26    13    61 1   
    27    13    62 1   
    28    14    15 ar  
    29    14    16 ar  
    30    15    17 ar  
    31    15    63 1   
    32    16    18 ar  
    33    16    64 1   
    34    17    19 ar  
    35    17    33 1   
    36    18    19 ar  
    37    18    65 1   
    38    19    20 1   
    39    20    66 1   
    40    21    22 1   
    41    21    67 1   
    42    22    23 1   
    43    22    25 1   
    44    22    68 1   
    45    23    24 2   
    46    23    38 1   
    47    25    26 1   
    48    25    69 1   
    49    25    70 1   
    50    26    27 2   
    51    26    28 1   
    52    28    71 1   
    53    28    72 1   
    54    29    30 ar  
    55    29    34 ar  
    56    29    44 1   
    57    30    31 ar  
    58    30    73 1   
    59    31    32 ar  
    60    31    74 1   
    61    32    33 ar  
    62    32    75 1   
    63    33    34 ar  
    64    34    35 1   
    65    35    36 1   
    66    35    76 1   
    67    36    37 2   
    68    36    44 1   
    69    38    39 1   
    70    38    77 1   
    71    39    40 1   
    72    39    42 1   
    73    39    78 1   
    74    40    41 2   
    75    40    49 1   
    76    42    43 1   
    77    42    44 1   
    78    42    79 1   
    79    43    80 1   
    80    44    45 1   
    81    45    81 1   
    82    46    47 1   
    83    46    82 1   
    84    46    83 1   
    85    46    84 1   
    86    47    48 2   
    87    47    86 1   
    88    48    49 1   
    89    48    87 1   
    90    49    85 1   
@<TRIPOS>SUBSTRUCTURE
     1 95A         1 TEMP              0 ****  ****    0 ROOT
