@<TRIPOS>MOLECULE
95A
   87    90     1     0     0
SMALL
bcc


@<TRIPOS>ATOM
      1 C42          0.3660    -1.7280     3.0700 c          1 95A       0.565100
      2 C44         -0.6420    -2.8430     2.7200 c          1 95A       0.519100
      3 C46         -1.8610    -2.9550     3.5870 c3         1 95A      -0.147700
      4 C48         -2.8490    -1.8630     3.1440 c3         1 95A      -0.084100
      5 C47         -2.4710    -4.3550     3.5220 c3         1 95A      -0.066400
      6 C49         -3.6180    -4.5420     4.5070 c3         1 95A      -0.090100
      7 O45         -0.4280    -3.5330     1.7520 o          1 95A      -0.518100
      8 O43          0.1850    -0.9780     4.0170 o          1 95A      -0.604100
      9 N41          1.3960    -1.6750     2.2270 ns         1 95A      -0.548900
     10 C15          2.4890    -0.7260     2.2840 c3         1 95A       0.033700
     11 C16          2.0960     0.6300     1.6550 c          1 95A       0.645100
     12 O17          2.7000     1.1220     0.7210 o          1 95A      -0.578100
     13 C14          3.7610    -1.3420     1.6700 c3         1 95A      -0.019100
     14 C60          3.5280    -2.2540     0.4890 ca         1 95A      -0.140300
     15 C61          2.8510    -1.8290    -0.6480 ca         1 95A      -0.077000
     16 C59          3.9130    -3.5930     0.5350 ca         1 95A      -0.078000
     17 C56          2.5000    -2.6920    -1.6840 cp         1 95A      -0.077000
     18 C58          3.6340    -4.4600    -0.5100 ca         1 95A      -0.228000
     19 C57          2.9100    -4.0250    -1.6180 ca         1 95A       0.162100
     20 O13          2.5580    -4.8450    -2.6240 oh         1 95A      -0.485100
     21 N18          1.0540     1.2410     2.2500 ns         1 95A      -0.571900
     22 C19          0.6690     2.6090     1.9680 c3         1 95A       0.053700
     23 C24          0.2720     2.8270     0.5040 c          1 95A       0.683100
     24 O25          0.8780     3.6130    -0.2110 o          1 95A      -0.618100
     25 C20          1.7260     3.6190     2.3960 c3         1 95A      -0.173400
     26 C21          1.2040     5.0370     2.3130 c          1 95A       0.686100
     27 O22          0.0130     5.2940     2.4360 o          1 95A      -0.619100
     28 N23          2.1370     5.9800     2.1480 nt         1 95A      -0.666000
     29 C50         -0.3310    -0.7600    -3.2090 ca         1 95A      -0.177300
     30 C51         -0.0500    -0.7580    -4.5560 ca         1 95A      -0.055000
     31 C52          1.0500    -1.4940    -5.0060 ca         1 95A      -0.164000
     32 C53          1.8750    -2.1590    -4.1090 ca         1 95A      -0.059000
     33 C54          1.6120    -2.1560    -2.7360 cp         1 95A      -0.050000
     34 C55          0.4620    -1.4930    -2.3370 ca         1 95A       0.090600
     35 N31         -0.0620    -1.4190    -1.0480 ns         1 95A      -0.455100
     36 C32         -1.1870    -0.6650    -1.0050 c          1 95A       0.679500
     37 O33         -1.9510    -0.5750    -0.0730 o          1 95A      -0.597500
     38 N26         -0.8080     2.1460     0.0940 ns         1 95A      -0.543900
     39 C27         -1.4200     2.3850    -1.1860 c3         1 95A      -0.015300
     40 C35         -2.9420     2.4060    -1.0430 c          1 95A       0.682100
     41 O37         -3.4940     2.2150     0.0220 o          1 95A      -0.567100
     42 C28         -0.8470     1.4950    -2.3240 c3         1 95A       0.178100
     43 O34          0.5470     1.4860    -2.2500 oh         1 95A      -0.589800
     44 C29         -1.3250     0.0200    -2.3850 c5         1 95A       0.131100
     45 O30         -2.6350     0.0380    -2.8370 oh         1 95A      -0.567800
     46 C40         -5.0110     2.7730    -4.7990 c3         1 95A      -0.047900
     47 C39         -5.6330     2.8730    -3.4400 c2         1 95A      -0.251200
     48 C38         -4.9820     2.8370    -2.2770 c2         1 95A      -0.009400
     49 N36         -3.5960     2.7530    -2.1730 ns         1 95A      -0.474100
     50 H46         -1.5650    -2.7370     4.6170 hc         1 95A       0.083700
     51 H481        -3.6920    -1.8270     3.8330 hc         1 95A       0.051033
     52 H482        -2.3940    -0.8730     3.1360 hc         1 95A       0.051033
     53 H483        -3.2280    -2.0650     2.1430 hc         1 95A       0.051033
     54 H471        -2.8210    -4.5590     2.5070 hc         1 95A       0.047700
     55 H472        -1.6950    -5.0950     3.7360 hc         1 95A       0.047700
     56 H491        -3.3050    -4.3140     5.5280 hc         1 95A       0.035367
     57 H492        -4.4700    -3.9040     4.2710 hc         1 95A       0.035367
     58 H493        -3.9730    -5.5730     4.4940 hc         1 95A       0.035367
     59 H41          1.4560    -2.4010     1.5260 hn         1 95A       0.346500
     60 H15          2.7000    -0.5170     3.3380 h1         1 95A       0.076700
     61 H141         4.4450    -0.5320     1.4130 hc         1 95A       0.067200
     62 H142         4.2520    -1.9180     2.4550 hc         1 95A       0.067200
     63 H61          2.5520    -0.7920    -0.7380 ha         1 95A       0.173000
     64 H59          4.4340    -3.9760     1.4040 ha         1 95A       0.131000
     65 H58          3.9500    -5.4950    -0.4440 ha         1 95A       0.134000
     66 H13          2.8740    -5.7400    -2.4570 ho         1 95A       0.427000
     67 H18          0.6690     0.8270     3.0870 hn         1 95A       0.346500
     68 H19         -0.2290     2.7860     2.5630 h1         1 95A       0.094700
     69 H201         1.9810     3.4210     3.4410 hc         1 95A       0.074700
     70 H202         2.6410     3.5050     1.8160 hc         1 95A       0.074700
     71 H231         3.1080     5.7530     2.0270 hn         1 95A       0.315000
     72 H232         1.8810     6.9530     2.1220 hn         1 95A       0.315000
     73 H51         -0.6580    -0.1940    -5.2530 ha         1 95A       0.137000
     74 H52          1.2830    -1.5200    -6.0620 ha         1 95A       0.135000
     75 H53          2.7550    -2.6700    -4.4770 ha         1 95A       0.140000
     76 H31          0.1690    -2.0740    -0.3180 hn         1 95A       0.339500
     77 H26         -1.3050     1.5610     0.7490 hn         1 95A       0.354500
     78 H27         -1.1500     3.4050    -1.4860 h1         1 95A       0.087700
     79 H28         -1.1870     1.9350    -3.2750 h1         1 95A       0.041700
     80 H34          0.8600     2.3440    -1.9340 ho         1 95A       0.445000
     81 H30         -2.9240    -0.8660    -3.0050 ho         1 95A       0.428000
     82 H401        -4.0980     2.1750    -4.8000 hc         1 95A       0.034700
     83 H402        -5.7020     2.3050    -5.5000 hc         1 95A       0.034700
     84 H403        -4.7630     3.7550    -5.2080 hc         1 95A       0.034700
     85 H36         -3.0610     2.8440    -3.0230 hn         1 95A       0.318500
     86 H391        -6.7080     2.9910    -3.3870 ha         1 95A       0.132000
     87 H381        -5.5100     2.8950    -1.3360 h4         1 95A       0.161000
@<TRIPOS>BOND
     1     1     2 1   
     2     1     8 2   
     3     1     9 1   
     4     2     3 1   
     5     2     7 2   
     6     3     4 1   
     7     3     5 1   
     8     3    50 1   
     9     4    51 1   
    10     4    52 1   
    11     4    53 1   
    12     5     6 1   
    13     5    54 1   
    14     5    55 1   
    15     6    56 1   
    16     6    57 1   
    17     6    58 1   
    18     9    10 1   
    19     9    59 1   
    20    10    11 1   
    21    10    13 1   
    22    10    60 1   
    23    11    12 2   
    24    11    21 1   
    25    13    14 1   
    26    13    61 1   
    27    13    62 1   
    28    14    15 ar  
    29    14    16 ar  
    30    15    17 ar  
    31    15    63 1   
    32    16    18 ar  
    33    16    64 1   
    34    17    19 ar  
    35    17    33 1   
    36    18    19 ar  
    37    18    65 1   
    38    19    20 1   
    39    20    66 1   
    40    21    22 1   
    41    21    67 1   
    42    22    23 1   
    43    22    25 1   
    44    22    68 1   
    45    23    24 2   
    46    23    38 1   
    47    25    26 1   
    48    25    69 1   
    49    25    70 1   
    50    26    27 2   
    51    26    28 1   
    52    28    71 1   
    53    28    72 1   
    54    29    30 ar  
    55    29    34 ar  
    56    29    44 1   
    57    30    31 ar  
    58    30    73 1   
    59    31    32 ar  
    60    31    74 1   
    61    32    33 ar  
    62    32    75 1   
    63    33    34 ar  
    64    34    35 1   
    65    35    36 1   
    66    35    76 1   
    67    36    37 2   
    68    36    44 1   
    69    38    39 1   
    70    38    77 1   
    71    39    40 1   
    72    39    42 1   
    73    39    78 1   
    74    40    41 2   
    75    40    49 1   
    76    42    43 1   
    77    42    44 1   
    78    42    79 1   
    79    43    80 1   
    80    44    45 1   
    81    45    81 1   
    82    46    47 1   
    83    46    82 1   
    84    46    83 1   
    85    46    84 1   
    86    47    48 2   
    87    47    86 1   
    88    48    49 1   
    89    48    87 1   
    90    49    85 1   
@<TRIPOS>SUBSTRUCTURE
     1 95A         1 TEMP              0 ****  ****    0 ROOT
