@<TRIPOS>MOLECULE
95B
   51    52     1     0     0
SMALL
bcc


@<TRIPOS>ATOM
      1 OAH         -4.6550    -1.7220     2.0360 oh         1 95B      -0.565100
      2 CBA         -4.8670    -1.8590     0.7220 ca         1 95B       0.126100
      3 CAY         -5.6020    -2.9880     0.3190 ca         1 95B       0.077100
      4 OAF         -6.0630    -3.8660     1.2320 oh         1 95B      -0.511100
      5 CAL         -5.8460    -3.2050    -1.0230 ca         1 95B      -0.127000
      6 CAJ         -5.3670    -2.3090    -1.9780 ca         1 95B      -0.159000
      7 CAN         -4.6550    -1.1940    -1.5900 ca         1 95B      -0.087000
      8 CBC         -4.4040    -0.9470    -0.2340 ca         1 95B      -0.212600
      9 CAW         -3.6530     0.2400     0.2540 c          1 95B       0.673700
     10 OAC         -3.3320     0.3150     1.4550 o          1 95B      -0.694100
     11 N           -3.3550     1.1910    -0.6220 ns         1 95B      -0.490900
     12 CA          -2.7170     2.4540    -0.3100 c3         1 95B      -0.053300
     13 C           -3.3860     3.5780    -1.1430 c          1 95B       0.926600
     14 O           -4.1450     3.2230    -2.0660 o          1 95B      -0.821300
     15 OXT         -3.0720     4.7370    -0.8250 o          1 95B      -0.821300
     16 CB          -1.2130     2.4330    -0.6050 c3         1 95B      -0.068400
     17 CAP         -0.4240     1.3840     0.1660 c3         1 95B      -0.075400
     18 CAO          1.0720     1.4850    -0.1070 c3         1 95B      -0.094400
     19 CAQ          1.8510     0.4080     0.6330 c3         1 95B       0.090000
     20 NAS          3.2790     0.5690     0.4410 ns         1 95B      -0.533900
     21 CAV          4.1390    -0.4370     0.2980 c          1 95B       0.689700
     22 OAB          3.7640    -1.6230     0.3110 o          1 95B      -0.660100
     23 CBB          5.5800    -0.1160     0.1270 ca         1 95B      -0.226600
     24 CAM          6.0670     1.1880    -0.0330 ca         1 95B      -0.097000
     25 CAI          7.4180     1.4190    -0.1730 ca         1 95B      -0.150000
     26 CAK          8.3180     0.3550    -0.1590 ca         1 95B      -0.118000
     27 CAX          7.8620    -0.9400    -0.0140 ca         1 95B       0.088100
     28 OAE          8.7430    -1.9600    -0.0080 oh         1 95B      -0.502100
     29 CAZ          6.4840    -1.1860     0.1220 ca         1 95B       0.133100
     30 OAG          6.1200    -2.4660     0.2420 oh         1 95B      -0.550100
     31 H1          -4.0800    -0.9110     2.1290 ho         1 95B       0.501000
     32 H2          -5.8090    -3.5870     2.1200 ho         1 95B       0.441000
     33 H3          -6.4040    -4.0820    -1.3250 ha         1 95B       0.134000
     34 H4          -5.5520    -2.4970    -3.0260 ha         1 95B       0.128000
     35 H5          -4.2790    -0.5270    -2.3550 ha         1 95B       0.143000
     36 H6          -3.7880     1.1840    -1.5360 hn         1 95B       0.345500
     37 H7          -2.8640     2.6670     0.7520 h1         1 95B       0.067700
     38 H9          -1.0620     2.2830    -1.6800 hc         1 95B       0.047700
     39 H10         -0.8220     3.4250    -0.3700 hc         1 95B       0.047700
     40 H11         -0.6080     1.4980     1.2380 hc         1 95B       0.044200
     41 H12         -0.7690     0.3820    -0.1040 hc         1 95B       0.044200
     42 H13          1.2650     1.3950    -1.1800 hc         1 95B       0.039700
     43 H14          1.4310     2.4740     0.1970 hc         1 95B       0.039700
     44 H15          1.6170     0.4440     1.7020 h1         1 95B       0.061200
     45 H16          1.5600    -0.5780     0.2740 h1         1 95B       0.061200
     46 H17          3.6330     1.5080     0.5150 hn         1 95B       0.316500
     47 H18          5.3960     2.0360    -0.0650 ha         1 95B       0.129000
     48 H19          7.7850     2.4280    -0.3010 ha         1 95B       0.135000
     49 H20          9.3810     0.5320    -0.2690 ha         1 95B       0.143000
     50 H21          8.2760    -2.8020     0.0620 ho         1 95B       0.445000
     51 H22          5.1240    -2.4650     0.2770 ho         1 95B       0.500000
@<TRIPOS>BOND
     1     1     2 1   
     2     1    31 1   
     3     2     3 ar  
     4     2     8 ar  
     5     3     4 1   
     6     3     5 ar  
     7     4    32 1   
     8     5     6 ar  
     9     5    33 1   
    10     6     7 ar  
    11     6    34 1   
    12     7     8 ar  
    13     7    35 1   
    14     8     9 1   
    15     9    10 2   
    16     9    11 1   
    17    11    12 1   
    18    11    36 1   
    19    12    13 1   
    20    12    16 1   
    21    12    37 1   
    22    13    14 1   
    23    13    15 1   
    24    16    17 1   
    25    16    38 1   
    26    16    39 1   
    27    17    18 1   
    28    17    40 1   
    29    17    41 1   
    30    18    19 1   
    31    18    42 1   
    32    18    43 1   
    33    19    20 1   
    34    19    44 1   
    35    19    45 1   
    36    20    21 1   
    37    20    46 1   
    38    21    22 2   
    39    21    23 1   
    40    23    24 ar  
    41    23    29 ar  
    42    24    25 ar  
    43    24    47 1   
    44    25    26 ar  
    45    25    48 1   
    46    26    27 ar  
    47    26    49 1   
    48    27    28 1   
    49    27    29 ar  
    50    28    50 1   
    51    29    30 1   
    52    30    51 1   
@<TRIPOS>SUBSTRUCTURE
     1 95B         1 TEMP              0 ****  ****    0 ROOT
