@<TRIPOS>MOLECULE
95B
   51    52     1     0     0
SMALL
No Charge or Current Charge


@<TRIPOS>ATOM
      1 OAH         -4.6040    -1.4220     2.2660 oh         1 95B      -0.604100
      2 CBA         -4.8080    -1.8000     0.9680 ca         1 95B       0.126100
      3 CAY         -5.4450    -3.0310     0.7040 ca         1 95B       0.077100
      4 OAF         -5.8440    -3.8210     1.7440 oh         1 95B      -0.550100
      5 CAL         -5.6660    -3.4430    -0.6170 ca         1 95B      -0.109000
      6 CAJ         -5.2500    -2.6230    -1.6770 ca         1 95B      -0.141000
      7 CAN         -4.6150    -1.3940    -1.4210 ca         1 95B      -0.069000
      8 CBC         -4.3840    -0.9600    -0.0900 ca         1 95B      -0.212600
      9 CAW         -3.7010     0.3600     0.2130 c          1 95B       0.606700
     10 OAC         -3.4970     0.7210     1.3680 o          1 95B      -0.694100
     11 N           -3.3260     1.1330    -0.8640 ns         1 95B      -0.423900
     12 CA          -2.6280     2.4410    -0.7910 c3         1 95B      -0.053300
     13 C           -3.2010     3.4090    -1.8680 c          1 95B       0.716000
     14 O           -3.3980     2.9730    -2.9950 o          1 95B      -0.716000
     15 OXT         -3.5260     4.5340    -1.5170 o          1 95B      -0.716000
     16 CB          -1.0900     2.2950    -0.9310 c3         1 95B      -0.068400
     17 CAP         -0.4190     1.4650     0.1880 c3         1 95B      -0.075400
     18 CAO          1.1190     1.4130     0.0610 c3         1 95B      -0.094400
     19 CAQ          1.7840     0.5820     1.1770 c3         1 95B       0.090000
     20 NAS          3.2440     0.5600     1.0540 ns         1 95B      -0.466900
     21 CAV          3.9480    -0.2410     0.1840 c          1 95B       0.622700
     22 OAB          3.3810    -1.0430    -0.5490 o          1 95B      -0.660100
     23 CBB          5.4570    -0.0910     0.1750 ca         1 95B      -0.226600
     24 CAM          6.1170     0.8380     1.0220 ca         1 95B      -0.079000
     25 CAI          7.5180     0.9630     0.9990 ca         1 95B      -0.132000
     26 CAK          8.2880     0.1690     0.1360 ca         1 95B      -0.100000
     27 CAX          7.6540    -0.7530    -0.7080 ca         1 95B       0.088100
     28 OAE          8.3960    -1.5310    -1.5520 oh         1 95B      -0.541100
     29 CAZ          6.2490    -0.8840    -0.6910 ca         1 95B       0.133100
     30 OAG          5.6580    -1.7930    -1.5250 oh         1 95B      -0.589100
     31 H1          -4.1430    -0.5350     2.2050 ho         1 95B       0.540000
     32 H2          -5.5890    -3.3370     2.5630 ho         1 95B       0.480000
     33 H3          -6.1560    -4.3920    -0.8200 ha         1 95B       0.116000
     34 H4          -5.4200    -2.9400    -2.7040 ha         1 95B       0.110000
     35 H5          -4.3100    -0.7940    -2.2760 ha         1 95B       0.125000
     36 H6          -3.5650     0.7810    -1.7820 hn         1 95B       0.345500
     37 H7          -2.8440     2.8960     0.1840 h1         1 95B       0.067700
     38 H9          -0.8570     1.8440    -1.9040 hc         1 95B       0.047700
     39 H10         -0.6470     3.2990    -0.9370 hc         1 95B       0.047700
     40 H11         -0.6860     1.8930     1.1630 hc         1 95B       0.044200
     41 H12         -0.8090     0.4400     0.1690 hc         1 95B       0.044200
     42 H13          1.3850     0.9880    -0.9150 hc         1 95B       0.039700
     43 H14          1.5200     2.4340     0.0870 hc         1 95B       0.039700
     44 H15          1.5230     1.0080     2.1550 h1         1 95B       0.061200
     45 H16          1.4060    -0.4490     1.1480 h1         1 95B       0.061200
     46 H17          3.7850     1.1930     1.6290 hn         1 95B       0.316500
     47 H18          5.5620     1.4740     1.7070 ha         1 95B       0.111000
     48 H19          8.0070     1.6800     1.6550 ha         1 95B       0.117000
     49 H20          9.3710     0.2690     0.1210 ha         1 95B       0.125000
     50 H21          7.7510    -2.0930    -2.0400 ho         1 95B       0.484000
     51 H22          4.6780    -1.7150    -1.3480 ho         1 95B       0.539000
@<TRIPOS>BOND
     1     1     2 1   
     2     1    31 1   
     3     2     3 ar  
     4     2     8 ar  
     5     3     4 1   
     6     3     5 ar  
     7     4    32 1   
     8     5     6 ar  
     9     5    33 1   
    10     6     7 ar  
    11     6    34 1   
    12     7     8 ar  
    13     7    35 1   
    14     8     9 1   
    15     9    10 2   
    16     9    11 1   
    17    11    12 1   
    18    11    36 1   
    19    12    13 1   
    20    12    16 1   
    21    12    37 1   
    22    13    14 1   
    23    13    15 1   
    24    16    17 1   
    25    16    38 1   
    26    16    39 1   
    27    17    18 1   
    28    17    40 1   
    29    17    41 1   
    30    18    19 1   
    31    18    42 1   
    32    18    43 1   
    33    19    20 1   
    34    19    44 1   
    35    19    45 1   
    36    20    21 1   
    37    20    46 1   
    38    21    22 2   
    39    21    23 1   
    40    23    24 ar  
    41    23    29 ar  
    42    24    25 ar  
    43    24    47 1   
    44    25    26 ar  
    45    25    48 1   
    46    26    27 ar  
    47    26    49 1   
    48    27    28 1   
    49    27    29 ar  
    50    28    50 1   
    51    29    30 1   
    52    30    51 1   
@<TRIPOS>SUBSTRUCTURE
     1 95B         1 TEMP              0 ****  ****    0 ROOT
