@<TRIPOS>MOLECULE
95C
   35    36     1     0     0
SMALL
bcc


@<TRIPOS>ATOM
      1 CAA          2.3600    -1.3050    -0.0110 ca         1 95C      -0.186600
      2 CAB          3.6720    -0.8800     0.1720 ca         1 95C      -0.091000
      3 CAC          4.0200     0.4560     0.1320 ca         1 95C      -0.112000
      4 CAD          3.0070     1.3710    -0.0940 ca         1 95C      -0.124200
      5 CAE          1.6930     0.9990    -0.3010 ca         1 95C      -0.114000
      6 CAF          1.3540    -0.3540    -0.2830 ca         1 95C       0.131600
      7 CAG          2.0450    -2.7700     0.0450 c          1 95C       0.693700
      8 CAN         -1.1010    -0.0870    -0.5100 c          1 95C       0.676100
      9 CAO         -2.3040    -0.9140    -0.9290 c3         1 95C      -0.110100
     10 CAP         -3.5890    -0.3860    -0.3640 ca         1 95C      -0.079300
     11 CAQ         -4.2890     0.6280    -1.0120 ca         1 95C      -0.108500
     12 CAR         -5.4710     1.1240    -0.4780 ca         1 95C      -0.127000
     13 CAS         -5.9670     0.6120     0.7140 ca         1 95C      -0.120000
     14 CAT         -5.2760    -0.4000     1.3660 ca         1 95C      -0.127000
     15 CAU         -4.0940    -0.8930     0.8290 ca         1 95C      -0.108500
     16 NAI          2.7980    -3.4990     0.8710 nt         1 95C      -0.654000
     17 NAJ          3.3370     2.7940    -0.1300 no         1 95C       0.308200
     18 NAM          0.0620    -0.7950    -0.5340 ns         1 95C      -0.490100
     19 OAH          1.1470    -3.2590    -0.6370 o          1 95C      -0.630100
     20 OAK          2.4350     3.5860    -0.2530 o          1 95C      -0.199000
     21 OAL          4.5000     3.1030    -0.0310 o          1 95C      -0.199000
     22 OAV         -1.1840     1.0870    -0.2150 o          1 95C      -0.557100
     23 H1           4.4560    -1.6070     0.3340 ha         1 95C       0.141000
     24 H2           5.0460     0.7560     0.2770 ha         1 95C       0.174000
     25 H3           0.9390     1.7430    -0.4880 ha         1 95C       0.205000
     26 H4          -2.3310    -0.8910    -2.0240 hc         1 95C       0.072200
     27 H5          -2.1630    -1.9600    -0.6520 hc         1 95C       0.072200
     28 H6          -3.9140     1.0280    -1.9460 ha         1 95C       0.129500
     29 H7          -6.0070     1.9090    -0.9960 ha         1 95C       0.132000
     30 H8          -6.8900     0.9960     1.1280 ha         1 95C       0.131000
     31 H9          -5.6560    -0.8080     2.2940 ha         1 95C       0.132000
     32 H10         -3.5610    -1.6850     1.3430 ha         1 95C       0.129500
     33 H11          3.4410    -3.0920     1.5270 hn         1 95C       0.323500
     34 H12          2.6290    -4.4900     0.9510 hn         1 95C       0.323500
     35 H13          0.0060    -1.7860    -0.7450 hn         1 95C       0.363500
@<TRIPOS>BOND
     1     1     2 ar  
     2     1     6 ar  
     3     1     7 1   
     4     2     3 ar  
     5     2    23 1   
     6     3     4 ar  
     7     3    24 1   
     8     4     5 ar  
     9     4    17 1   
    10     5     6 ar  
    11     5    25 1   
    12     6    18 1   
    13     7    16 1   
    14     7    19 2   
    15     8     9 1   
    16     8    18 1   
    17     8    22 2   
    18     9    10 1   
    19     9    26 1   
    20     9    27 1   
    21    10    11 ar  
    22    10    15 ar  
    23    11    12 ar  
    24    11    28 1   
    25    12    13 ar  
    26    12    29 1   
    27    13    14 ar  
    28    13    30 1   
    29    14    15 ar  
    30    14    31 1   
    31    15    32 1   
    32    16    33 1   
    33    16    34 1   
    34    17    20 1   
    35    17    21 1   
    36    18    35 1   
@<TRIPOS>SUBSTRUCTURE
     1 95C         1 TEMP              0 ****  ****    0 ROOT
