@<TRIPOS>MOLECULE
95C
   35    36     1     0     0
SMALL
No Charge or Current Charge


@<TRIPOS>ATOM
      1 CAA          1.9200    -1.1380     0.3370 ca         1 95C      -0.186600
      2 CAB          3.2120    -0.8350     0.8370 ca         1 95C      -0.073000
      3 CAC          3.8050     0.4170     0.6190 ca         1 95C      -0.094000
      4 CAD          3.1290     1.4110    -0.1140 ca         1 95C      -0.124200
      5 CAE          1.8410     1.1240    -0.6180 ca         1 95C      -0.096000
      6 CAF          1.2230    -0.1300    -0.3950 ca         1 95C       0.039000
      7 CAG          1.3170    -2.5160     0.5930 c          1 95C       0.626700
      8 CAN         -1.0870     0.3960    -1.4120 c          1 95C       0.609100
      9 CAO         -2.3360    -0.3760    -1.8530 c3         1 95C      -0.110100
     10 CAP         -3.4060    -0.3330    -0.7660 ca         1 95C      -0.079300
     11 CAQ         -4.3810     0.6840    -0.7660 ca         1 95C      -0.090500
     12 CAR         -5.3610     0.7270     0.2400 ca         1 95C      -0.109000
     13 CAS         -5.3720    -0.2460     1.2540 ca         1 95C      -0.102000
     14 CAT         -4.4010    -1.2620     1.2600 ca         1 95C      -0.109000
     15 CAU         -3.4210    -1.3050     0.2540 ca         1 95C      -0.090500
     16 NAI          1.9720    -3.3570     1.4190 nt         1 95C      -0.587000
     17 NAJ          3.7700     2.7490    -0.3590 no         1 95C       0.688200
     18 NAM         -0.0780    -0.4070    -0.9020 ns         1 95C      -0.164000
     19 OAH          0.2830    -2.9130     0.0810 o          1 95C      -0.630100
     20 OAK          3.1400     3.5910    -1.0130 o          1 95C      -0.389000
     21 OAL          4.9010     2.9500     0.1040 o          1 95C      -0.389000
     22 OAV         -1.0280     1.6180    -1.4860 o          1 95C      -0.557100
     23 H1           3.7860    -1.5680     1.3960 ha         1 95C       0.123000
     24 H2           4.8010     0.6010     1.0200 ha         1 95C       0.156000
     25 H3           1.3300     1.8860    -1.1980 ha         1 95C       0.187000
     26 H4          -2.7240     0.0790    -2.7720 hc         1 95C       0.072200
     27 H5          -2.0740    -1.4230    -2.0490 hc         1 95C       0.072200
     28 H6          -4.3780     1.4440    -1.5450 ha         1 95C       0.111500
     29 H7          -6.1110     1.5150     0.2350 ha         1 95C       0.114000
     30 H8          -6.1310    -0.2130     2.0330 ha         1 95C       0.113000
     31 H9          -4.4080    -2.0150     2.0450 ha         1 95C       0.114000
     32 H10         -2.6730    -2.0950     0.2700 ha         1 95C       0.111500
     33 H11          2.8240    -3.0680     1.8730 hn         1 95C       0.323500
     34 H12          1.5850    -4.2720     1.5910 hn         1 95C       0.323500
     35 H13         -0.3190    -1.3900    -0.8620 hn         1 95C       0.197000
@<TRIPOS>BOND
     1     1     2 ar  
     2     1     6 ar  
     3     1     7 1   
     4     2     3 ar  
     5     2    23 1   
     6     3     4 ar  
     7     3    24 1   
     8     4     5 ar  
     9     4    17 1   
    10     5     6 ar  
    11     5    25 1   
    12     6    18 1   
    13     7    16 1   
    14     7    19 2   
    15     8     9 1   
    16     8    18 1   
    17     8    22 2   
    18     9    10 1   
    19     9    26 1   
    20     9    27 1   
    21    10    11 ar  
    22    10    15 ar  
    23    11    12 ar  
    24    11    28 1   
    25    12    13 ar  
    26    12    29 1   
    27    13    14 ar  
    28    13    30 1   
    29    14    15 ar  
    30    14    31 1   
    31    15    32 1   
    32    16    33 1   
    33    16    34 1   
    34    17    20 1   
    35    17    21 1   
    36    18    35 1   
@<TRIPOS>SUBSTRUCTURE
     1 95C         1 TEMP              0 ****  ****    0 ROOT
