@<TRIPOS>MOLECULE
95D
   42    44     1     0     0
SMALL
bcc


@<TRIPOS>ATOM
      1 C5          -2.3830     1.4190    -1.6640 cc         1 95D       0.063900
      2 C7           3.0980     0.4090     0.2230 cc         1 95D       0.598300
      3 C10          1.1350     1.7830    -0.2520 c          1 95D       0.821100
      4 N12          3.1760    -0.2390    -0.8880 nd         1 95D      -0.658000
      5 C13          4.9310    -1.1550     0.2770 cc         1 95D      -0.134300
      6 C17         -6.0350    -3.5240    -0.1800 c          1 95D       0.676100
      7 C24         -2.8120     1.6270     1.9570 ca         1 95D      -0.136000
      8 C28         -4.3010    -0.2920     2.0980 ca         1 95D      -0.225000
      9 C14          4.2120    -1.1280    -0.8680 cd         1 95D       0.422200
     10 C18         -4.2480    -0.5030     0.7320 ca         1 95D       0.154100
     11 C2          -2.0750     2.0830    -0.5030 cd         1 95D      -0.427300
     12 C23         -5.5910    -2.4450     0.7970 c3         1 95D       0.051400
     13 C27         -3.5870     0.7610     2.6930 ca         1 95D      -0.093000
     14 C3          -2.7520     1.4280     0.5710 ca         1 95D       0.024200
     15 C9          -3.4620     0.3760    -0.0310 ca         1 95D      -0.088200
     16 N11          2.1800     1.3790     0.5470 ns         1 95D      -0.554400
     17 N26         -6.9750    -4.3360     0.3170 nt         1 95D      -0.679000
     18 N4          -3.2170     0.4010    -1.3910 na         1 95D      -0.008400
     19 N6           0.3860     2.7800     0.3350 ns         1 95D      -0.663300
     20 O15         -0.6570     3.8580    -1.7270 o          1 95D      -0.607800
     21 O16         -1.4680     4.3600     0.5960 o          1 95D      -0.607800
     22 O19          0.8770     1.3310    -1.3390 o          1 95D      -0.539100
     23 O20         -4.8830    -1.4820     0.0660 os         1 95D      -0.298900
     24 O21         -5.5470    -3.6360    -1.2900 o          1 95D      -0.576100
     25 S1          -0.9950     3.4080    -0.3930 sy         1 95D       1.391500
     26 S8           4.2980    -0.0160     1.4110 ss         1 95D      -0.200300
     27 BR22         6.3990    -2.2060     0.6880 br         1 95D      -0.014100
     28 H1          -2.0550     1.6150    -2.6720 h4         1 95D       0.197000
     29 H2          -2.2770     2.4340     2.4350 ha         1 95D       0.149000
     30 H3          -4.8960    -0.9350     2.7310 ha         1 95D       0.131000
     31 H4           4.4070    -1.7460    -1.7330 h4         1 95D       0.057100
     32 H5          -6.4580    -2.0080     1.3050 h1         1 95D       0.052200
     33 H6          -4.9620    -2.9100     1.5650 h1         1 95D       0.052200
     34 H7          -4.8570    -0.3470    -2.4690 h1         1 95D       0.067033
     35 H8          -3.3400    -0.2020    -3.3620 h1         1 95D       0.067033
     36 H9          -3.5540    -1.5120    -2.1950 h1         1 95D       0.067033
     37 H10         -3.6590     0.8870     3.7650 ha         1 95D       0.132000
     38 H11          2.2820     1.8150     1.4510 hn         1 95D       0.333500
     39 H12         -7.3070    -5.1210    -0.2200 hn         1 95D       0.319000
     40 H13         -7.3700    -4.2030     1.2320 hn         1 95D       0.319000
     41 H14          0.5820     3.1260     1.2670 hn         1 95D       0.339500
     42 C25         -3.7790    -0.4720    -2.4060 c3         1 95D       0.025600
@<TRIPOS>BOND
     1     1    11 2   
     2     1    18 1   
     3     1    28 1   
     4     2     4 2   
     5     2    16 1   
     6     2    26 1   
     7     3    16 1   
     8     3    19 1   
     9     3    22 2   
    10     4     9 1   
    11     5     9 2   
    12     5    26 1   
    13     5    27 1   
    14     6    12 1   
    15     6    17 1   
    16     6    24 2   
    17     7    13 ar  
    18     7    14 ar  
    19     7    29 1   
    20     8    10 ar  
    21     8    13 ar  
    22     8    30 1   
    23     9    31 1   
    24    10    15 ar  
    25    10    23 1   
    26    11    14 1   
    27    11    25 1   
    28    12    23 1   
    29    12    32 1   
    30    12    33 1   
    31    13    37 1   
    32    14    15 ar  
    33    15    18 1   
    34    16    38 1   
    35    17    39 1   
    36    17    40 1   
    37    18    42 1   
    38    19    25 1   
    39    19    41 1   
    40    20    25 2   
    41    21    25 2   
    42    34    42 1   
    43    35    42 1   
    44    36    42 1   
@<TRIPOS>SUBSTRUCTURE
     1 95D         1 TEMP              0 ****  ****    0 ROOT
