@<TRIPOS>MOLECULE
95D
   42    44     1     0     0
SMALL
No Charge or Current Charge


@<TRIPOS>ATOM
      1 C5          -2.3290     1.4950    -1.7770 cc         1 95D       0.013900
      2 C7           3.1910     0.4730     0.2730 cc         1 95D       0.598300
      3 C10          1.1990     1.8200    -0.3140 c          1 95D       0.687100
      4 N12          3.3220    -0.1730    -0.8760 nd         1 95D      -0.658000
      5 C13          5.0810    -1.0230     0.3800 cc         1 95D      -0.213900
      6 C17         -6.4140    -3.5140    -0.1650 c          1 95D       0.609100
      7 C24         -2.7370     1.5720     1.9020 ca         1 95D      -0.118000
      8 C28         -4.2460    -0.3490     2.0760 ca         1 95D      -0.207000
      9 C14          4.4090    -1.0350    -0.8190 cd         1 95D       0.356900
     10 C18         -4.2140    -0.5300     0.6700 ca         1 95D       0.154100
     11 C2          -2.0430     2.0780    -0.5490 cd         1 95D      -0.427300
     12 C23         -5.7350    -2.4850     0.7710 c3         1 95D       0.074600
     13 C27         -3.5120     0.6940     2.6850 ca         1 95D      -0.075000
     14 C3          -2.7240     1.3750     0.5150 ca         1 95D       0.024200
     15 C9          -3.4290     0.3640    -0.0910 ca         1 95D      -0.088200
     16 N11          2.2000     1.3940     0.5130 ns         1 95D      -0.487400
     17 N26         -7.2010    -4.4360     0.4390 nt         1 95D      -0.612000
     18 N4          -3.1980     0.4320    -1.4680 na         1 95D      -0.037700
     19 N6           0.4150     2.7380     0.2930 ns         1 95D      -0.596300
     20 O15         -0.5870     3.9980    -1.6570 o          1 95D      -0.537000
     21 O16         -1.4530     4.3340     0.7330 o          1 95D      -0.537000
     22 O19          1.0210     1.4330    -1.4540 o          1 95D      -0.539100
     23 O20         -4.9170    -1.5410     0.0430 os         1 95D      -0.322100
     24 O21         -6.2820    -3.5350    -1.3800 o          1 95D      -0.576100
     25 S1          -0.9470     3.4680    -0.3370 sy         1 95D       1.249900
     26 S8           4.3690     0.0870     1.5070 ss         1 95D      -0.055400
     27 Br22         6.5950    -2.0550     0.8220 br         1 95D      -0.014100
     28 H1          -1.9990     1.7270    -2.7870 h4         1 95D       0.247000
     29 H2          -2.1710     2.3730     2.3690 ha         1 95D       0.131000
     30 H3          -4.8320    -1.0050     2.7130 ha         1 95D       0.113000
     31 H4           4.6610    -1.6440    -1.6800 h4         1 95D       0.057100
     32 H5          -6.5290    -1.9650     1.3210 h1         1 95D       0.052200
     33 H6          -5.1290    -3.0470     1.4930 h1         1 95D       0.052200
     34 H7          -4.8880    -0.4470    -2.3790 h1         1 95D       0.067033
     35 H8          -3.4680    -0.2620    -3.4460 h1         1 95D       0.067033
     36 H9          -3.4740    -1.5320    -2.1910 h1         1 95D       0.067033
     37 H10         -3.5440     0.8210     3.7650 ha         1 95D       0.114000
     38 H11          2.2080     1.8180     1.4270 hn         1 95D       0.333500
     39 H12         -7.6680    -5.1300    -0.1250 hn         1 95D       0.319000
     40 H13         -7.3170    -4.4280     1.4430 hn         1 95D       0.319000
     41 H14          0.5710     3.0150     1.2450 hn         1 95D       0.339500
     42 C25         -3.7940    -0.5110    -2.4290 c3         1 95D       0.054900
@<TRIPOS>BOND
     1     1    11 2   
     2     1    18 1   
     3     1    28 1   
     4     2     4 2   
     5     2    16 1   
     6     2    26 1   
     7     3    16 1   
     8     3    19 1   
     9     3    22 2   
    10     4     9 1   
    11     5     9 2   
    12     5    26 1   
    13     5    27 1   
    14     6    12 1   
    15     6    17 1   
    16     6    24 2   
    17     7    13 ar  
    18     7    14 ar  
    19     7    29 1   
    20     8    10 ar  
    21     8    13 ar  
    22     8    30 1   
    23     9    31 1   
    24    10    15 ar  
    25    10    23 1   
    26    11    14 1   
    27    11    25 1   
    28    12    23 1   
    29    12    32 1   
    30    12    33 1   
    31    13    37 1   
    32    14    15 ar  
    33    15    18 1   
    34    16    38 1   
    35    17    39 1   
    36    17    40 1   
    37    18    42 1   
    38    19    25 1   
    39    19    41 1   
    40    20    25 2   
    41    21    25 2   
    42    34    42 1   
    43    35    42 1   
    44    36    42 1   
@<TRIPOS>SUBSTRUCTURE
     1 95D         1 TEMP              0 ****  ****    0 ROOT
