@<TRIPOS>MOLECULE
95E
   38    37     1     0     0
SMALL
bcc


@<TRIPOS>ATOM
      1 C2          -3.3800     0.9030    -1.3540 c3         1 95E       0.098400
      2 O12          3.5450     2.0230     0.5560 oh         1 95E      -0.602800
      3 C11          3.3660     0.8830     1.3700 c3         1 95E       0.098400
      4 C10          3.0450    -0.3190     0.4850 c3         1 95E       0.185500
      5 C13          4.2080    -0.6700    -0.4440 c3         1 95E      -0.063900
      6 C14          4.0150    -1.9940    -1.1680 c3         1 95E      -0.084100
      7 N9           1.8240    -0.1790    -0.2910 n7         1 95E      -0.819200
      8 C8           0.5940    -0.1510     0.4720 c3         1 95E       0.164800
      9 C7          -0.6080    -0.1560    -0.4610 c3         1 95E       0.164800
     10 N6          -1.8380    -0.1680     0.3010 n7         1 95E      -0.819200
     11 C3          -3.0610    -0.3030    -0.4740 c3         1 95E       0.185500
     12 O1          -3.5570     2.0400    -0.5360 oh         1 95E      -0.602800
     13 C4          -4.2250    -0.6530     0.4550 c3         1 95E      -0.063900
     14 C5          -4.0350    -1.9820     1.1720 c3         1 95E      -0.084100
     15 H1          -2.5660     1.0550    -2.0750 h1         1 95E       0.022200
     16 H2          -4.2810     0.6830    -1.9430 h1         1 95E       0.022200
     17 H3           3.6240     2.7920     1.1270 ho         1 95E       0.403000
     18 H5           2.5540     1.0330     2.0920 h1         1 95E       0.022200
     19 H6           2.8980    -1.1630     1.1710 h1         1 95E       0.055700
     20 H7           4.3490     0.1330    -1.1750 hc         1 95E       0.042950
     21 H8           5.1280    -0.7050     0.1470 hc         1 95E       0.042950
     22 H9           3.9330    -2.8220    -0.4610 hc         1 95E       0.033700
     23 H10          3.1070    -1.9810    -1.7690 hc         1 95E       0.033700
     24 H11          4.8550    -2.2090    -1.8300 hc         1 95E       0.033700
     25 H12          1.8890     0.6540    -0.8650 hn         1 95E       0.366800
     26 H14          0.5530    -1.0430     1.1030 h1         1 95E       0.031700
     27 H15          0.5100     0.7130     1.1510 h1         1 95E       0.031700
     28 H16         -0.5210     0.6960    -1.1550 h1         1 95E       0.031700
     29 H17         -0.5700    -1.0590    -1.0780 h1         1 95E       0.031700
     30 H18         -1.8960     0.6700     0.8690 hn         1 95E       0.366800
     31 H20         -2.9170    -1.1450    -1.1620 h1         1 95E       0.055700
     32 H21         -3.6380     2.8110    -1.1040 ho         1 95E       0.403000
     33 H22         -4.3620     0.1460     1.1900 hc         1 95E       0.042950
     34 H23         -5.1450    -0.6830    -0.1360 hc         1 95E       0.042950
     35 H24         -3.9510    -2.8060     0.4600 hc         1 95E       0.033700
     36 H25         -3.1280    -1.9730     1.7750 hc         1 95E       0.033700
     37 H26         -4.8770    -2.1990     1.8300 hc         1 95E       0.033700
     38 H4           4.2680     0.6590     1.9560 h1         1 95E       0.022200
@<TRIPOS>BOND
     1     1    11 1   
     2     1    12 1   
     3     1    15 1   
     4     1    16 1   
     5     2     3 1   
     6     2    17 1   
     7     3     4 1   
     8     3    18 1   
     9     3    38 1   
    10     4     5 1   
    11     4     7 1   
    12     4    19 1   
    13     5     6 1   
    14     5    20 1   
    15     5    21 1   
    16     6    22 1   
    17     6    23 1   
    18     6    24 1   
    19     7     8 1   
    20     7    25 1   
    21     8     9 1   
    22     8    26 1   
    23     8    27 1   
    24     9    10 1   
    25     9    28 1   
    26     9    29 1   
    27    10    11 1   
    28    10    30 1   
    29    11    13 1   
    30    11    31 1   
    31    12    32 1   
    32    13    14 1   
    33    13    33 1   
    34    13    34 1   
    35    14    35 1   
    36    14    36 1   
    37    14    37 1   
@<TRIPOS>SUBSTRUCTURE
     1 95E         1 TEMP              0 ****  ****    0 ROOT
