@<TRIPOS>MOLECULE
95E
   38    37     1     0     0
SMALL
No Charge or Current Charge


@<TRIPOS>ATOM
      1 C2          -3.4080     1.1410    -1.1100 c3         1 95E       0.121600
      2 O12          3.3530     2.1700     0.1320 oh         1 95E      -0.665000
      3 C11          3.3980     1.1250     1.1250 c3         1 95E       0.121600
      4 C10          3.1300    -0.2800     0.4920 c3         1 95E       0.185500
      5 C13          4.3090    -0.7450    -0.4050 c3         1 95E      -0.063900
      6 C14          4.1800    -2.1960    -0.9210 c3         1 95E      -0.084100
      7 N9           1.8780    -0.2570    -0.3030 n7         1 95E      -0.874400
      8 C8           0.6140    -0.2660     0.4720 c3         1 95E       0.164800
      9 C7          -0.6300    -0.2630    -0.4610 c3         1 95E       0.164800
     10 N6          -1.8940    -0.2510     0.3130 n7         1 95E      -0.874400
     11 C3          -3.1450    -0.2660    -0.4820 c3         1 95E       0.185500
     12 O1          -3.3590     2.1840    -0.1140 oh         1 95E      -0.665000
     13 C4          -4.3260    -0.7300     0.4140 c3         1 95E      -0.063900
     14 C5          -4.2030    -2.1820     0.9260 c3         1 95E      -0.084100
     15 H1          -2.6540     1.3320    -1.8850 h1         1 95E       0.022200
     16 H2          -4.3870     1.1350    -1.6080 h1         1 95E       0.022200
     17 H3           3.5370     3.0170     0.5970 ho         1 95E       0.442000
     18 H5           2.6440     1.3150     1.9000 h1         1 95E       0.022200
     19 H6           3.0430    -1.0070     1.3130 h1         1 95E       0.055700
     20 H7           4.4130    -0.0680    -1.2610 hc         1 95E       0.042950
     21 H8           5.2400    -0.6680     0.1700 hc         1 95E       0.042950
     22 H9           4.0850    -2.8980    -0.0840 hc         1 95E       0.033700
     23 H10          3.3030    -2.3080    -1.5690 hc         1 95E       0.033700
     24 H11          5.0680    -2.4730    -1.5020 hc         1 95E       0.033700
     25 H12          1.9150     0.6180    -0.8410 hn         1 95E       0.422000
     26 H14          0.5700    -1.1600     1.1100 h1         1 95E       0.031700
     27 H15          0.5620     0.6130     1.1280 h1         1 95E       0.031700
     28 H16         -0.5740     0.6190    -1.1150 h1         1 95E       0.031700
     29 H17         -0.5890    -1.1540    -1.1020 h1         1 95E       0.031700
     30 H18         -1.9270     0.6230     0.8540 hn         1 95E       0.422000
     31 H20         -3.0610    -0.9910    -1.3050 h1         1 95E       0.055700
     32 H21         -3.5400     3.0320    -0.5770 ho         1 95E       0.442000
     33 H22         -4.4280    -0.0550     1.2720 hc         1 95E       0.042950
     34 H23         -5.2570    -0.6470    -0.1610 hc         1 95E       0.042950
     35 H24         -4.1110    -2.8820     0.0870 hc         1 95E       0.033700
     36 H25         -3.3260    -2.3000     1.5740 hc         1 95E       0.033700
     37 H26         -5.0920    -2.4580     1.5050 hc         1 95E       0.033700
     38 H4           4.3760     1.1130     1.6220 h1         1 95E       0.022200
@<TRIPOS>BOND
     1     1    11 1   
     2     1    12 1   
     3     1    15 1   
     4     1    16 1   
     5     2     3 1   
     6     2    17 1   
     7     3     4 1   
     8     3    18 1   
     9     3    38 1   
    10     4     5 1   
    11     4     7 1   
    12     4    19 1   
    13     5     6 1   
    14     5    20 1   
    15     5    21 1   
    16     6    22 1   
    17     6    23 1   
    18     6    24 1   
    19     7     8 1   
    20     7    25 1   
    21     8     9 1   
    22     8    26 1   
    23     8    27 1   
    24     9    10 1   
    25     9    28 1   
    26     9    29 1   
    27    10    11 1   
    28    10    30 1   
    29    11    13 1   
    30    11    31 1   
    31    12    32 1   
    32    13    14 1   
    33    13    33 1   
    34    13    34 1   
    35    14    35 1   
    36    14    36 1   
    37    14    37 1   
@<TRIPOS>SUBSTRUCTURE
     1 95E         1 TEMP              0 ****  ****    0 ROOT
