@<TRIPOS>MOLECULE
95F
   34    35     1     0     0
SMALL
bcc


@<TRIPOS>ATOM
      1 C2           2.0640    -9.2830   -15.4560 ca         1 95F       0.920900
      2 C4           0.2510    -8.0820   -16.1370 ca         1 95F       0.730200
      3 C5           0.9680    -7.6180   -17.2670 ca         1 95F      -0.389900
      4 C6           2.2730    -8.0960   -17.3710 ca         1 95F       0.506600
      5 CAH         -2.1000    -7.7610   -16.8300 c6         1 95F       0.171800
      6 CAI         -2.8700    -9.0630   -16.6500 c6         1 95F       0.097900
      7 OAO         -3.3720    -9.2050   -15.3410 os         1 95F      -0.401600
      8 CAN         -2.3330    -9.1510   -14.3830 c6         1 95F       0.097900
      9 CAM         -1.5520    -7.8540   -14.5040 c6         1 95F       0.171800
     10 NAG         -1.0290    -7.6590   -15.8480 nh         1 95F      -0.767300
     11 N3           0.8150    -8.8890   -15.2430 nb         1 95F      -0.846000
     12 NAP          2.6000   -10.1500   -14.5590 nv         1 95F      -0.941500
     13 N1           2.8200    -8.9380   -16.4930 nb         1 95F      -0.794000
     14 CAA          3.1850    -7.6470   -18.4740 c3         1 95F      -0.152400
     15 CAB          0.4580    -6.5630   -18.2150 c3         1 95F      -0.008100
     16 CAC          0.0380    -7.0630   -19.5990 c3         1 95F      -0.089100
     17 H2          -2.7740    -6.9070   -16.7140 h1         1 95F       0.066200
     18 H3          -3.7230    -9.0840   -17.3310 h1         1 95F       0.055450
     19 H4          -2.2140    -9.9080   -16.9070 h1         1 95F       0.055450
     20 H5          -2.7970    -9.2220   -13.3980 h1         1 95F       0.055450
     21 H6          -1.6510   -10.0020   -14.5030 h1         1 95F       0.055450
     22 H7          -0.7440    -7.8320   -13.7770 h1         1 95F       0.066200
     23 H8          -2.2170    -7.0100   -14.2880 h1         1 95F       0.066200
     24 H9           3.6000   -10.2600   -14.5650 hn         1 95F       0.428800
     25 H10          2.1590   -10.2190   -13.6580 hn         1 95F       0.428800
     26 H11          4.1890    -8.0310   -18.3080 hc         1 95F       0.054033
     27 H12          2.8460    -7.9990   -19.4490 hc         1 95F       0.054033
     28 H13          3.2400    -6.5590   -18.5320 hc         1 95F       0.054033
     29 H14          1.2380    -5.8080   -18.3510 hc         1 95F       0.046200
     30 H15         -0.3710    -6.0240   -17.7540 hc         1 95F       0.046200
     31 H16         -0.3540    -6.2410   -20.1980 hc         1 95F       0.032033
     32 H17          0.8760    -7.4950   -20.1450 hc         1 95F       0.032033
     33 H18         -0.7340    -7.8300   -19.5450 hc         1 95F       0.032033
     34 H1          -1.7120    -7.7340   -17.8420 h1         1 95F       0.066200
@<TRIPOS>BOND
     1     1    11 ar  
     2     1    12 1   
     3     1    13 ar  
     4     2     3 ar  
     5     2    10 1   
     6     2    11 ar  
     7     3     4 ar  
     8     3    15 1   
     9     4    13 ar  
    10     4    14 1   
    11     5     6 1   
    12     5    10 1   
    13     5    17 1   
    14     5    34 1   
    15     6     7 1   
    16     6    18 1   
    17     6    19 1   
    18     7     8 1   
    19     8     9 1   
    20     8    20 1   
    21     8    21 1   
    22     9    10 1   
    23     9    22 1   
    24     9    23 1   
    25    12    24 1   
    26    12    25 1   
    27    14    26 1   
    28    14    27 1   
    29    14    28 1   
    30    15    16 1   
    31    15    29 1   
    32    15    30 1   
    33    16    31 1   
    34    16    32 1   
    35    16    33 1   
@<TRIPOS>SUBSTRUCTURE
     1 95F         1 TEMP              0 ****  ****    0 ROOT
