@<TRIPOS>MOLECULE
95F
   34    35     1     0     0
SMALL
No Charge or Current Charge


@<TRIPOS>ATOM
      1 C2           2.0080    -9.5120   -15.7390 ca         1 95F       0.394900
      2 C4           0.2530    -8.1970   -16.3310 ca         1 95F       0.401900
      3 C5           1.0680    -7.5260   -17.2750 ca         1 95F      -0.259300
      4 C6           2.4140    -7.9570   -17.3600 ca         1 95F       0.178300
      5 CAH         -2.1450    -8.4760   -17.0170 c6         1 95F       0.171800
      6 CAI         -2.9850    -9.5620   -16.2790 c6         1 95F       0.121100
      7 OAO         -3.5060    -9.0520   -15.0290 os         1 95F      -0.448000
      8 CAN         -2.4580    -8.6300   -14.1250 c6         1 95F       0.121100
      9 CAM         -1.5970    -7.5010   -14.7660 c6         1 95F       0.171800
     10 NAG         -1.1010    -7.8680   -16.1330 nh         1 95F      -0.767300
     11 N3           0.7270    -9.1910   -15.5600 nb         1 95F      -0.320000
     12 NAP          2.4810   -10.5120   -14.9610 nv         1 95F      -1.051900
     13 N1           2.8800    -8.9580   -16.5860 nb         1 95F      -0.268000
     14 CAA          3.4330    -7.3240   -18.2990 c3         1 95F      -0.152400
     15 CAB          0.5340    -6.3680   -18.1320 c3         1 95F      -0.008100
     16 CAC          0.0680    -6.8180   -19.5310 c3         1 95F      -0.089100
     17 H2          -2.8190    -7.6920   -17.3940 h1         1 95F       0.066200
     18 H3          -3.8230    -9.8810   -16.9160 h1         1 95F       0.055450
     19 H4          -2.3580   -10.4420   -16.0760 h1         1 95F       0.055450
     20 H5          -2.9100    -8.2690   -13.1910 h1         1 95F       0.055450
     21 H6          -1.8200    -9.4930   -13.8830 h1         1 95F       0.055450
     22 H7          -0.7540    -7.2710   -14.0980 h1         1 95F       0.066200
     23 H8          -2.2020    -6.5840   -14.8270 h1         1 95F       0.066200
     24 H9           3.4880   -10.6410   -14.8980 hn         1 95F       0.484000
     25 H10          1.9270   -10.8100   -14.1620 hn         1 95F       0.484000
     26 H11          4.4100    -7.8190   -18.2340 hc         1 95F       0.054033
     27 H12          3.1070    -7.3900   -19.3430 hc         1 95F       0.054033
     28 H13          3.5880    -6.2670   -18.0570 hc         1 95F       0.054033
     29 H14          1.3000    -5.5930   -18.2500 hc         1 95F       0.046200
     30 H15         -0.3010    -5.8640   -17.6310 hc         1 95F       0.046200
     31 H16         -0.2810    -5.9550   -20.1100 hc         1 95F       0.032033
     32 H17          0.8840    -7.2940   -20.0860 hc         1 95F       0.032033
     33 H18         -0.7580    -7.5330   -19.4570 hc         1 95F       0.032033
     34 H1          -1.6790    -8.9400   -17.8980 h1         1 95F       0.066200
@<TRIPOS>BOND
     1     1    11 ar  
     2     1    12 1   
     3     1    13 ar  
     4     2     3 ar  
     5     2    10 1   
     6     2    11 ar  
     7     3     4 ar  
     8     3    15 1   
     9     4    13 ar  
    10     4    14 1   
    11     5     6 1   
    12     5    10 1   
    13     5    17 1   
    14     5    34 1   
    15     6     7 1   
    16     6    18 1   
    17     6    19 1   
    18     7     8 1   
    19     8     9 1   
    20     8    20 1   
    21     8    21 1   
    22     9    10 1   
    23     9    22 1   
    24     9    23 1   
    25    12    24 1   
    26    12    25 1   
    27    14    26 1   
    28    14    27 1   
    29    14    28 1   
    30    15    16 1   
    31    15    29 1   
    32    15    30 1   
    33    16    31 1   
    34    16    32 1   
    35    16    33 1   
@<TRIPOS>SUBSTRUCTURE
     1 95F         1 TEMP              0 ****  ****    0 ROOT
