@<TRIPOS>MOLECULE
95G
   38    40     1     0     0
SMALL
No Charge or Current Charge


@<TRIPOS>ATOM
      1 C5           2.8080     0.4560    -1.1830 ca         1 95G       0.180100
      2 C6           6.2070    -2.0530    -0.0400 cc         1 95G       0.356000
      3 C9           3.9120    -3.4430    -2.3370 c3         1 95G       0.072900
      4 C10          2.4200     1.5910    -1.9100 ca         1 95G      -0.166500
      5 C3           5.4750    -0.8710    -0.2730 cc         1 95G      -0.027000
      6 C1           4.4880    -1.2640    -1.1150 cd         1 95G       0.044100
      7 C11          2.3700     0.2890     0.1440 ca         1 95G      -0.166500
      8 C15          1.1840     2.4150     0.0210 ca         1 95G      -0.325500
      9 C14          1.5620     1.2670     0.7490 ca         1 95G       0.029500
     10 C13          1.6110     2.5730    -1.3140 ca         1 95G       0.029500
     11 O2           3.5940    -0.4890    -1.8020 os         1 95G      -0.216200
     12 C21         -5.3550    -0.6930     0.6300 cc         1 95G       0.354900
     13 C22         -6.3370    -0.1070    -0.1260 cd         1 95G      -0.210900
     14 C24         -4.3130     1.1920     0.1070 cd         1 95G       0.589300
     15 C27         -2.0970     2.1530     0.6040 c          1 95G       0.685100
     16 N19         -1.4130     3.2800     0.3070 ns         1 95G      -0.601300
     17 N20         -4.2050     0.0450     0.7620 nc         1 95G      -0.656000
     18 N26         -3.3400     2.1550     0.0390 ns         1 95G      -0.484400
     19 N4           4.6930    -2.6090    -1.4140 na         1 95G       0.139800
     20 N8           5.7750    -3.1210    -0.6990 nd         1 95G      -0.488800
     21 O17          0.1880     3.5030     2.2390 o          1 95G      -0.521000
     22 O18          0.4190     4.9620     0.1480 o          1 95G      -0.521000
     23 O28         -1.6430     1.2560     1.2890 o          1 95G      -0.533100
     24 S16          0.1420     3.6690     0.7820 sy         1 95G       1.202300
     25 S23         -5.8460     1.4570    -0.7300 ss         1 95G      -0.045400
     26 Cl7          5.8280     0.7140     0.3600 cl         1 95G      -0.113000
     27 H1           4.1390    -3.1530    -3.3690 h1         1 95G       0.066700
     28 H2           4.1640    -4.5000    -2.1910 h1         1 95G       0.066700
     29 H3           2.8420    -3.2960    -2.1450 h1         1 95G       0.066700
     30 H4           2.7500     1.7110    -2.9380 ha         1 95G       0.140000
     31 H5           2.6480    -0.5960     0.7100 ha         1 95G       0.140000
     32 H6           1.2290     1.1230     1.7760 ha         1 95G       0.144500
     33 H7           1.3210     3.4500    -1.8920 ha         1 95G       0.144500
     34 H8          -5.4110    -1.6590     1.1150 h4         1 95G       0.058100
     35 H9          -1.8060     3.9940    -0.2800 hn         1 95G       0.342500
     36 H10         -3.5590     2.9800    -0.4970 hn         1 95G       0.334500
     37 Cl1          7.5960    -2.0830     1.0050 cl         1 95G      -0.104000
     38 Br25        -8.0450    -0.7880    -0.5420 br         1 95G      -0.008100
@<TRIPOS>BOND
     1     1     4 ar  
     2     1     7 ar  
     3     1    11 1   
     4     2     5 1   
     5     2    20 2   
     6     2    37 1   
     7     3    19 1   
     8     3    27 1   
     9     3    28 1   
    10     3    29 1   
    11     4    10 ar  
    12     4    30 1   
    13     5     6 2   
    14     5    26 1   
    15     6    11 1   
    16     6    19 1   
    17     7     9 ar  
    18     7    31 1   
    19     8     9 ar  
    20     8    10 ar  
    21     8    24 1   
    22     9    32 1   
    23    10    33 1   
    24    12    13 2   
    25    12    17 1   
    26    12    34 1   
    27    13    25 1   
    28    13    38 1   
    29    14    17 2   
    30    14    18 1   
    31    14    25 1   
    32    15    16 1   
    33    15    18 1   
    34    15    23 2   
    35    16    24 1   
    36    16    35 1   
    37    18    36 1   
    38    19    20 1   
    39    21    24 2   
    40    22    24 2   
@<TRIPOS>SUBSTRUCTURE
     1 95G         1 TEMP              0 ****  ****    0 ROOT
