@<TRIPOS>MOLECULE
95G
   38    40     1     0     0
SMALL
abcg2


@<TRIPOS>ATOM
      1 C5           2.8800     0.6240    -1.1610 ca         1 95G       0.180100
      2 C6           5.9350    -2.1880     0.0040 cc         1 95G       0.356000
      3 C9           3.3730    -3.1490    -2.1520 c3         1 95G       0.072900
      4 C10          2.4170     1.7100    -1.8930 ca         1 95G      -0.166500
      5 C3           5.5080    -0.8970    -0.3170 cc         1 95G      -0.027000
      6 C1           4.4470    -1.1130    -1.1680 cd         1 95G       0.044100
      7 C11          2.5210     0.4400     0.1670 ca         1 95G      -0.166500
      8 C15          1.2300     2.4530     0.0460 ca         1 95G      -0.325500
      9 C14          1.6880     1.3660     0.7740 ca         1 95G       0.029500
     10 C13          1.5890     2.6320    -1.2850 ca         1 95G       0.029500
     11 O2           3.6790    -0.2530    -1.8450 os         1 95G      -0.216200
     12 C21         -4.9820    -0.9360     0.4960 cc         1 95G       0.354900
     13 C22         -6.0390    -0.4170    -0.1700 cd         1 95G      -0.210900
     14 C24         -4.1090     1.0130     0.0160 cd         1 95G       0.589300
     15 C27         -1.9890     2.1230     0.5040 c          1 95G       0.685100
     16 N19         -1.3410     3.3110     0.2280 ns         1 95G      -0.601300
     17 N20         -3.8930    -0.1180     0.5940 nc         1 95G      -0.656000
     18 N26         -3.2320     2.0680    -0.0770 ns         1 95G      -0.484400
     19 N4           4.3000    -2.4400    -1.2960 na         1 95G       0.139800
     20 N8           5.2170    -3.1070    -0.5940 nd         1 95G      -0.488800
     21 O17          0.2140     3.4570     2.2420 o          1 95G      -0.521000
     22 O18          0.4800     4.9570     0.2450 o          1 95G      -0.521000
     23 O28         -1.4920     1.2550     1.1770 o          1 95G      -0.533100
     24 S16          0.1930     3.6520     0.8100 sy         1 95G       1.202300
     25 S23         -5.6800     1.1850    -0.7100 ss         1 95G      -0.045400
     26 CL7          6.1210     0.5930     0.2180 cl         1 95G      -0.113000
     27 H1           3.8080    -3.3170    -3.1350 h1         1 95G       0.066700
     28 H2           3.1440    -4.1030    -1.6880 h1         1 95G       0.066700
     29 H3           2.4560    -2.5780    -2.2570 h1         1 95G       0.066700
     30 H4           2.7120     1.8360    -2.9260 ha         1 95G       0.140000
     31 H5           2.8730    -0.4080     0.7390 ha         1 95G       0.140000
     32 H6           1.4080     1.2240     1.8070 ha         1 95G       0.144500
     33 H7           1.2360     3.4820    -1.8530 ha         1 95G       0.144500
     34 H8          -4.9530    -1.9220     0.9360 h4         1 95G       0.058100
     35 H9          -1.7250     3.9980    -0.4100 hn         1 95G       0.342500
     36 H10         -3.5460     2.8730    -0.5990 hn         1 95G       0.334500
     37 CL1          7.2260    -2.5860     1.0380 cl         1 95G      -0.104000
     38 BR25        -7.6770    -1.2060    -0.5160 br         1 95G      -0.008100
@<TRIPOS>BOND
     1     1     4 ar  
     2     1     7 ar  
     3     1    11 1   
     4     2     5 1   
     5     2    20 2   
     6     2    37 1   
     7     3    19 1   
     8     3    27 1   
     9     3    28 1   
    10     3    29 1   
    11     4    10 ar  
    12     4    30 1   
    13     5     6 2   
    14     5    26 1   
    15     6    11 1   
    16     6    19 1   
    17     7     9 ar  
    18     7    31 1   
    19     8     9 ar  
    20     8    10 ar  
    21     8    24 1   
    22     9    32 1   
    23    10    33 1   
    24    12    13 2   
    25    12    17 1   
    26    12    34 1   
    27    13    25 1   
    28    13    38 1   
    29    14    17 2   
    30    14    18 1   
    31    14    25 1   
    32    15    16 1   
    33    15    18 1   
    34    15    23 2   
    35    16    24 1   
    36    16    35 1   
    37    18    36 1   
    38    19    20 1   
    39    21    24 2   
    40    22    24 2   
@<TRIPOS>SUBSTRUCTURE
     1 95G         1 TEMP              0 ****  ****    0 ROOT
