@<TRIPOS>MOLECULE
95H
   49    50     1     0     0
SMALL
bcc


@<TRIPOS>ATOM
      1 O17         -2.3900    -3.0300    -1.1090 oh         1 95H      -0.589800
      2 O14         -2.0870     3.2490     0.8280 oh         1 95H      -0.606800
      3 C5          -4.1650     0.1510     0.3380 c6         1 95H       0.218200
      4 C8          -1.0510    -2.6100    -1.0030 c3         1 95H       0.140100
      5 O10         -1.0580     0.8250     1.7360 oh         1 95H      -0.581800
      6 C4          -3.8050     1.5360     0.8960 c6         1 95H       0.094100
      7 C3          -2.5310     2.0490     0.2430 c6         1 95H       0.116100
      8 C2          -1.4150     1.0200     0.3920 c6         1 95H       0.129100
      9 C1          -1.8870    -0.3110    -0.1860 c6         1 95H       0.134100
     10 C18          2.7350    -0.4040     0.5090 ca         1 95H      -0.110600
     11 C19          3.4820     0.1230     1.5590 ca         1 95H      -0.106500
     12 C20          4.7110     0.7100     1.3250 ca         1 95H      -0.072000
     13 C21          5.1980     0.7430     0.0260 ca         1 95H      -0.161200
     14 C22          4.4860     0.2050    -1.0340 ca         1 95H      -0.072000
     15 C23          3.2490    -0.3650    -0.7840 ca         1 95H      -0.106500
     16 C7          -0.8670    -1.4520     0.0000 c3         1 95H       0.082700
     17 C9          -0.1350    -3.7820    -0.6750 c3         1 95H      -0.124100
     18 N13          0.4830    -0.9530    -0.1310 ns         1 95H      -0.563900
     19 N24          6.4950     1.3570    -0.2300 no         1 95H       0.312200
     20 O11          1.2340    -1.5620     1.9200 o          1 95H      -0.571100
     21 O15         -4.8140     2.4870     0.6790 oh         1 95H      -0.586800
     22 O26          6.9080     1.3560    -1.3640 o          1 95H      -0.203000
     23 O27          7.0880     1.8370     0.7070 o          1 95H      -0.203000
     24 O6          -3.0830    -0.7260     0.4490 os         1 95H      -0.382600
     25 H1          -2.7090    -3.2820    -0.2360 ho         1 95H       0.412000
     26 H2          -2.8170     3.8770     0.8310 ho         1 95H       0.431000
     27 H3          -4.9620    -0.2940     0.9400 h2         1 95H       0.091700
     28 H4          -0.7920    -2.2250    -1.9960 h1         1 95H       0.062700
     29 H5          -0.7470     1.6640     2.0900 ho         1 95H       0.421000
     30 H6          -3.6150     1.4020     1.9700 h1         1 95H       0.068700
     31 H7          -2.7160     2.1860    -0.8340 h1         1 95H       0.063700
     32 H8          -0.5600     1.3710    -0.2030 h1         1 95H       0.044700
     33 H9          -2.0660    -0.1550    -1.2600 h1         1 95H       0.067700
     34 H10          3.1000     0.0840     2.5700 ha         1 95H       0.156000
     35 H11          5.2730     1.1280     2.1470 ha         1 95H       0.173500
     36 H12          4.8740     0.2220    -2.0410 ha         1 95H       0.173500
     37 H13          2.7090    -0.7990    -1.6150 ha         1 95H       0.156000
     38 H14         -6.1510    -1.6290    -0.8580 h1         1 95H       0.067033
     39 H15         -5.9100    -1.3790    -2.5920 h1         1 95H       0.067033
     40 H16         -4.6030    -2.0740    -1.6200 h1         1 95H       0.067033
     41 H17         -0.9690    -1.8330     1.0190 h1         1 95H       0.110700
     42 H18         -0.2810    -4.5820    -1.4010 hc         1 95H       0.047033
     43 H19          0.9170    -3.5010    -0.7050 hc         1 95H       0.047033
     44 H20         -0.3500    -4.1820     0.3190 hc         1 95H       0.047033
     45 H21          0.7150    -0.4760    -0.9890 hn         1 95H       0.312500
     46 H22         -5.5620     2.2880     1.2510 ho         1 95H       0.417000
     47 S16         -4.8170     0.3250    -1.3610 ss         1 95H      -0.368200
     48 C12          1.4110    -1.0300     0.8370 c          1 95H       0.684700
     49 C25         -5.4200    -1.3590    -1.6200 c3         1 95H      -0.004000
@<TRIPOS>BOND
     1     1     4 1   
     2     1    25 1   
     3     2     7 1   
     4     2    26 1   
     5     3     6 1   
     6     3    24 1   
     7     3    27 1   
     8     3    47 1   
     9     4    16 1   
    10     4    17 1   
    11     4    28 1   
    12     5     8 1   
    13     5    29 1   
    14     6     7 1   
    15     6    21 1   
    16     6    30 1   
    17     7     8 1   
    18     7    31 1   
    19     8     9 1   
    20     8    32 1   
    21     9    16 1   
    22     9    24 1   
    23     9    33 1   
    24    10    11 ar  
    25    10    15 ar  
    26    10    48 1   
    27    11    12 ar  
    28    11    34 1   
    29    12    13 ar  
    30    12    35 1   
    31    13    14 ar  
    32    13    19 1   
    33    14    15 ar  
    34    14    36 1   
    35    15    37 1   
    36    16    18 1   
    37    16    41 1   
    38    17    42 1   
    39    17    43 1   
    40    17    44 1   
    41    18    45 1   
    42    18    48 1   
    43    19    22 1   
    44    19    23 1   
    45    20    48 2   
    46    21    46 1   
    47    38    49 1   
    48    39    49 1   
    49    40    49 1   
    50    47    49 1   
@<TRIPOS>SUBSTRUCTURE
     1 95H         1 TEMP              0 ****  ****    0 ROOT
