@<TRIPOS>MOLECULE
95H
   49    50     1     0     0
SMALL
No Charge or Current Charge


@<TRIPOS>ATOM
      1 O17         -2.4150    -3.2480    -0.0110 oh         1 95H      -0.652000
      2 O14         -2.6160     3.2740     1.4520 oh         1 95H      -0.669000
      3 C5          -4.3330     0.1810    -0.0170 c6         1 95H       0.289300
      4 C8          -1.1640    -2.6970    -0.4380 c3         1 95H       0.163300
      5 O10         -1.6530     0.7930     2.3340 oh         1 95H      -0.704000
      6 C4          -4.1900     1.5030     0.8160 c6         1 95H       0.117300
      7 C3          -2.7700     2.1150     0.6100 c6         1 95H       0.139300
      8 C2          -1.6580     1.0670     0.9180 c6         1 95H       0.152300
      9 C1          -1.9180    -0.2170     0.0590 c6         1 95H       0.157300
     10 C18          2.8910    -0.4210     0.4380 ca         1 95H      -0.110600
     11 C19          4.0220    -0.5030     1.2810 ca         1 95H      -0.088500
     12 C20          5.2690     0.0030     0.8740 ca         1 95H      -0.054000
     13 C21          5.4170     0.6070    -0.3940 ca         1 95H      -0.161200
     14 C22          4.2900     0.6930    -1.2430 ca         1 95H      -0.054000
     15 C23          3.0440     0.1850    -0.8320 ca         1 95H      -0.088500
     16 C7          -0.8760    -1.3610     0.3260 c3         1 95H       0.082700
     17 C9          -0.0850    -3.7840    -0.2410 c3         1 95H      -0.124100
     18 N13          0.4960    -0.8820     0.0470 ns         1 95H      -0.496900
     19 N24          6.7450     1.1480    -0.8320 no         1 95H       0.692200
     20 O11          1.4400    -1.5000     2.0200 o          1 95H      -0.571100
     21 O15         -5.2030     2.4930     0.5010 oh         1 95H      -0.709000
     22 O26          6.8250     1.6680    -1.9530 o          1 95H      -0.393000
     23 O27          7.7030     1.0490    -0.0540 o          1 95H      -0.393000
     24 O6          -3.2570    -0.7300     0.3120 os         1 95H      -0.429000
     25 H1          -2.9920    -2.4670     0.1770 ho         1 95H       0.451000
     26 H2          -3.4710     3.7590     1.3660 ho         1 95H       0.470000
     27 H3          -5.2890    -0.2940     0.2520 h2         1 95H       0.091700
     28 H4          -1.2120    -2.4650    -1.5120 h1         1 95H       0.062700
     29 H5          -1.8090     1.6740     2.7510 ho         1 95H       0.520000
     30 H6          -4.2820     1.2160     1.8740 h1         1 95H       0.068700
     31 H7          -2.6740     2.4100    -0.4460 h1         1 95H       0.063700
     32 H8          -0.6910     1.4990     0.6200 h1         1 95H       0.044700
     33 H9          -1.8340     0.0500    -1.0040 h1         1 95H       0.067700
     34 H10          3.9400    -0.9630     2.2640 ha         1 95H       0.138000
     35 H11          6.1150    -0.0800     1.5540 ha         1 95H       0.155500
     36 H12          4.3690     1.1520    -2.2270 ha         1 95H       0.155500
     37 H13          2.2080     0.2760    -1.5210 ha         1 95H       0.138000
     38 H14         -5.6310    -1.6870    -1.9530 h1         1 95H       0.067033
     39 H15         -4.8270    -1.3310    -3.5090 h1         1 95H       0.067033
     40 H16         -3.8720    -1.9560    -2.1370 h1         1 95H       0.067033
     41 H17         -0.9440    -1.5910     1.3980 h1         1 95H       0.110700
     42 H18         -0.3750    -4.7110    -0.7490 hc         1 95H       0.047033
     43 H19          0.8770    -3.4650    -0.6580 hc         1 95H       0.047033
     44 H20          0.0560    -4.0050     0.8240 hc         1 95H       0.047033
     45 H21          0.6850    -0.4620    -0.8540 hn         1 95H       0.312500
     46 H22         -6.0860     2.0670     0.6100 ho         1 95H       0.516000
     47 S16         -4.3880     0.4270    -1.8600 ss         1 95H      -0.464000
     48 C12          1.5640    -0.9810     0.9190 c          1 95H       0.617700
     49 C25         -4.7110    -1.3080    -2.4180 c3         1 95H       0.043900
@<TRIPOS>BOND
     1     1     4 1   
     2     1    25 1   
     3     2     7 1   
     4     2    26 1   
     5     3     6 1   
     6     3    24 1   
     7     3    27 1   
     8     3    47 1   
     9     4    16 1   
    10     4    17 1   
    11     4    28 1   
    12     5     8 1   
    13     5    29 1   
    14     6     7 1   
    15     6    21 1   
    16     6    30 1   
    17     7     8 1   
    18     7    31 1   
    19     8     9 1   
    20     8    32 1   
    21     9    16 1   
    22     9    24 1   
    23     9    33 1   
    24    10    11 ar  
    25    10    15 ar  
    26    10    48 1   
    27    11    12 ar  
    28    11    34 1   
    29    12    13 ar  
    30    12    35 1   
    31    13    14 ar  
    32    13    19 1   
    33    14    15 ar  
    34    14    36 1   
    35    15    37 1   
    36    16    18 1   
    37    16    41 1   
    38    17    42 1   
    39    17    43 1   
    40    17    44 1   
    41    18    45 1   
    42    18    48 1   
    43    19    22 1   
    44    19    23 1   
    45    20    48 2   
    46    21    46 1   
    47    38    49 1   
    48    39    49 1   
    49    40    49 1   
    50    47    49 1   
@<TRIPOS>SUBSTRUCTURE
     1 95H         1 TEMP              0 ****  ****    0 ROOT
