@<TRIPOS>MOLECULE
95I
   36    37     1     0     0
SMALL
bcc


@<TRIPOS>ATOM
      1 C10         -1.4190    22.7710   -26.3620 ca         1 95I      -0.114000
      2 C13          3.1120    24.3000   -21.5440 c          1 95I       0.929600
      3 C17          3.2090    21.1160   -21.7710 cc         1 95I       0.332600
      4 C20          4.2010    19.2940   -21.2440 cd         1 95I       0.354400
      5 C02         -0.1080    23.8800   -23.2690 cs         1 95I       0.621400
      6 C04         -1.9530    24.6420   -24.7510 c3         1 95I       0.151300
      7 C05         -2.0260    24.0010   -26.1160 ca         1 95I      -0.103300
      8 C06         -2.7170    24.6260   -27.1480 ca         1 95I      -0.114000
      9 C07         -2.8050    24.0380   -28.4050 ca         1 95I      -0.136000
     10 C08         -2.1940    22.8150   -28.6430 ca         1 95I      -0.135000
     11 C09         -1.5020    22.1830   -27.6160 ca         1 95I      -0.136000
     12 C12          1.9720    23.3520   -22.0050 c3         1 95I      -0.039300
     13 C16          2.5130    22.0820   -22.6730 c3         1 95I      -0.098700
     14 C18          3.4660    21.1870   -20.4290 cd         1 95I      -0.227600
     15 N03         -0.6150    24.6910   -24.2160 ns         1 95I      -0.543900
     16 N11          1.1710    24.0960   -22.9600 ns         1 95I      -0.459900
     17 N19          4.0960    20.0150   -20.1140 na         1 95I      -0.314900
     18 N21          3.6780    19.9240   -22.2640 nc         1 95I      -0.692000
     19 S01         -1.0360    22.6860   -22.5070 s          1 95I      -0.771400
     20 H1          -0.8830    22.2660   -25.5670 ha         1 95I       0.141500
     21 H2           4.6670    18.3210   -21.2700 h5         1 95I       0.032100
     22 H3          -2.3420    25.6610   -24.8020 h1         1 95I       0.073200
     23 H4          -2.5740    24.0940   -24.0420 h1         1 95I       0.073200
     24 H5          -3.1900    25.5850   -26.9720 ha         1 95I       0.141500
     25 H6          -3.3440    24.5400   -29.1980 ha         1 95I       0.124500
     26 H7          -2.2540    22.3570   -29.6210 ha         1 95I       0.120000
     27 H8          -1.0240    21.2280   -27.7940 ha         1 95I       0.124500
     28 H9           1.3370    23.0780   -21.1620 h1         1 95I       0.085700
     29 H10          3.1820    22.3750   -23.4890 hc         1 95I       0.053200
     30 H11          1.6690    21.5670   -23.1420 hc         1 95I       0.053200
     31 H12          3.2730    21.9560   -19.7020 h4         1 95I       0.211000
     32 H13          0.0070    25.3590   -24.6470 hn         1 95I       0.300500
     33 H14          1.6990    24.7890   -23.4750 hn         1 95I       0.328500
     34 H15          4.4310    19.7480   -19.2020 hn         1 95I       0.285700
     35 O14          3.6790    24.9250   -22.4630 o          1 95I      -0.824300
     36 O15          3.3600    24.3500   -20.3280 o          1 95I      -0.824300
@<TRIPOS>BOND
     1     1     7 ar  
     2     1    11 ar  
     3     1    20 1   
     4     2    12 1   
     5     2    35 1   
     6     2    36 1   
     7     3    13 1   
     8     3    14 2   
     9     3    18 1   
    10     4    17 1   
    11     4    18 2   
    12     4    21 1   
    13     5    15 1   
    14     5    16 1   
    15     5    19 2   
    16     6     7 1   
    17     6    15 1   
    18     6    22 1   
    19     6    23 1   
    20     7     8 ar  
    21     8     9 ar  
    22     8    24 1   
    23     9    10 ar  
    24     9    25 1   
    25    10    11 ar  
    26    10    26 1   
    27    11    27 1   
    28    12    13 1   
    29    12    16 1   
    30    12    28 1   
    31    13    29 1   
    32    13    30 1   
    33    14    17 1   
    34    14    31 1   
    35    15    32 1   
    36    16    33 1   
    37    17    34 1   
@<TRIPOS>SUBSTRUCTURE
     1 95I         1 TEMP              0 ****  ****    0 ROOT
