@<TRIPOS>MOLECULE
95I
   36    37     1     0     0
SMALL
No Charge or Current Charge


@<TRIPOS>ATOM
      1 C10         -2.4290    22.6980   -27.2610 ca         1 95I      -0.096000
      2 C13          3.6590    23.7400   -22.6780 c          1 95I       0.719000
      3 C17          3.4530    21.1810   -20.9910 cc         1 95I       0.267300
      4 C20          5.2330    20.5440   -19.9580 cd         1 95I       0.354400
      5 C02         -0.0010    23.1660   -23.4080 cs         1 95I       0.487400
      6 C04         -2.0310    23.4380   -24.8620 c3         1 95I       0.151300
      7 C05         -2.3260    23.7440   -26.3220 ca         1 95I      -0.103300
      8 C06         -2.4920    25.0760   -26.7500 ca         1 95I      -0.096000
      9 C07         -2.7620    25.3590   -28.1010 ca         1 95I      -0.118000
     10 C08         -2.8650    24.3110   -29.0310 ca         1 95I      -0.117000
     11 C09         -2.6980    22.9810   -28.6110 ca         1 95I      -0.118000
     12 C12          2.3270    22.9850   -22.3930 c3         1 95I      -0.039300
     13 C16          2.5520    21.4690   -22.1610 c3         1 95I      -0.098700
     14 C18          3.1680    21.3430   -19.6640 cd         1 95I      -0.195000
     15 N03         -0.5930    23.4180   -24.6070 ns         1 95I      -0.476900
     16 N11          1.3600    23.2270   -23.4870 ns         1 95I      -0.392900
     17 N19          4.3150    20.9340   -19.0010 na         1 95I      -0.314500
     18 N21          4.7150    20.6870   -21.1690 nc         1 95I      -0.692000
     19 S01         -0.8580    22.8460   -22.0080 s          1 95I      -0.771400
     20 H1          -2.2990    21.6650   -26.9440 ha         1 95I       0.123500
     21 H2           6.2210    20.1760   -19.7050 h5         1 95I       0.032100
     22 H3          -2.4990    24.1980   -24.2200 h1         1 95I       0.073200
     23 H4          -2.4570    22.4610   -24.5930 h1         1 95I       0.073200
     24 H5          -2.4110    25.8930   -26.0350 ha         1 95I       0.123500
     25 H6          -2.8890    26.3890   -28.4250 ha         1 95I       0.106500
     26 H7          -3.0730    24.5300   -30.0760 ha         1 95I       0.102000
     27 H8          -2.7770    22.1700   -29.3310 ha         1 95I       0.106500
     28 H9           1.9130    23.4180   -21.4730 h1         1 95I       0.085700
     29 H10          2.9650    21.0230   -23.0740 hc         1 95I       0.053200
     30 H11          1.5860    20.9810   -21.9900 hc         1 95I       0.053200
     31 H12          2.2700    21.7030   -19.1720 h4         1 95I       0.193000
     32 H13          0.0120    23.6060   -25.3970 hn         1 95I       0.300500
     33 H14          1.7550    23.4530   -24.3930 hn         1 95I       0.328500
     34 H15          4.4720    20.9170   -17.9990 hn         1 95I       0.336000
     35 O14          4.1290    23.6790   -23.8070 o          1 95I      -0.719000
     36 O15          4.0920    24.4890   -21.8130 o          1 95I      -0.719000
@<TRIPOS>BOND
     1     1     7 ar  
     2     1    11 ar  
     3     1    20 1   
     4     2    12 1   
     5     2    35 1   
     6     2    36 1   
     7     3    13 1   
     8     3    14 2   
     9     3    18 1   
    10     4    17 1   
    11     4    18 2   
    12     4    21 1   
    13     5    15 1   
    14     5    16 1   
    15     5    19 2   
    16     6     7 1   
    17     6    15 1   
    18     6    22 1   
    19     6    23 1   
    20     7     8 ar  
    21     8     9 ar  
    22     8    24 1   
    23     9    10 ar  
    24     9    25 1   
    25    10    11 ar  
    26    10    26 1   
    27    11    27 1   
    28    12    13 1   
    29    12    16 1   
    30    12    28 1   
    31    13    29 1   
    32    13    30 1   
    33    14    17 1   
    34    14    31 1   
    35    15    32 1   
    36    16    33 1   
    37    17    34 1   
@<TRIPOS>SUBSTRUCTURE
     1 95I         1 TEMP              0 ****  ****    0 ROOT
