@<TRIPOS>MOLECULE
95J
   30    32     1     0     0
SMALL
bcc


@<TRIPOS>ATOM
      1 C7           0.2900     1.9800     0.0470 c          1 95J       0.816100
      2 C8          -3.7120    -0.9650     0.2950 cc         1 95J      -0.106600
      3 C3           2.5020     1.4020     0.7910 cc         1 95J       0.542300
      4 C2          -2.9100     1.3170     0.0010 cc         1 95J      -0.356600
      5 C11         -3.9840    -2.3840     0.1530 cc         1 95J       0.399800
      6 C15         -4.1630    -0.1190     1.2770 cd         1 95J      -0.143000
      7 C13         -3.7050     1.2000     1.1060 cd         1 95J      -0.015000
      8 C12          4.2090    -0.2440     0.4540 cc         1 95J      -0.170300
      9 C16          4.5060     0.7210     1.3540 cd         1 95J       0.413200
     10 C19         -3.5290    -3.2780    -0.8530 cc         1 95J      -0.389600
     11 C22         -4.0830    -4.4530    -0.4880 cd         1 95J       0.285600
     12 N10          3.5270     1.6530     1.5370 nd         1 95J      -0.706000
     13 N14         -4.7370    -3.0010     1.0240 nd         1 95J      -0.344300
     14 N4          -0.7160     2.8990     0.2220 ns         1 95J      -0.650300
     15 N9           1.3920     2.2110     0.8100 ns         1 95J      -0.537400
     16 O17         -1.9320     2.6290    -1.9900 o          1 95J      -0.588800
     17 O18         -2.9340     3.9090    -0.0590 o          1 95J      -0.588800
     18 O20         -4.7990    -4.2910     0.6240 os         1 95J      -0.102100
     19 O21          0.2050     1.0430    -0.7190 o          1 95J      -0.591100
     20 S1          -2.1830     2.7880    -0.5770 sy         1 95J       1.388900
     21 S5           2.6310    -0.0020    -0.2140 ss         1 95J      -0.031300
     22 S6          -2.7150    -0.1590    -0.8420 ss         1 95J       0.156200
     23 BR23         5.2580    -1.6770    -0.0730 br         1 95J      -0.018100
     24 H1          -4.8040    -0.4320     2.0880 ha         1 95J       0.174000
     25 H2          -3.9560     2.0190     1.7640 ha         1 95J       0.169000
     26 H3           5.4300     0.7940     1.9100 h4         1 95J       0.053100
     27 H4          -2.8980    -3.0800    -1.7030 ha         1 95J       0.180000
     28 H5          -4.0530    -5.4450    -0.9100 h4         1 95J       0.063100
     29 H6          -0.6780     3.5870     0.9660 hn         1 95J       0.350500
     30 H7           1.4430     3.0060     1.4330 hn         1 95J       0.348500
@<TRIPOS>BOND
     1     1    14 1   
     2     1    15 1   
     3     1    19 2   
     4     2     5 1   
     5     2     6 2   
     6     2    22 1   
     7     3    12 2   
     8     3    15 1   
     9     3    21 1   
    10     4     7 2   
    11     4    20 1   
    12     4    22 1   
    13     5    10 1   
    14     5    13 2   
    15     6     7 1   
    16     6    24 1   
    17     7    25 1   
    18     8     9 2   
    19     8    21 1   
    20     8    23 1   
    21     9    12 1   
    22     9    26 1   
    23    10    11 2   
    24    10    27 1   
    25    11    18 1   
    26    11    28 1   
    27    13    18 1   
    28    14    20 1   
    29    14    29 1   
    30    15    30 1   
    31    16    20 2   
    32    17    20 2   
@<TRIPOS>SUBSTRUCTURE
     1 95J         1 TEMP              0 ****  ****    0 ROOT
