@<TRIPOS>MOLECULE
95J
   30    32     1     0     0
SMALL
No Charge or Current Charge


@<TRIPOS>ATOM
      1 C7           0.2630     1.8480    -0.1680 c          1 95J       0.682100
      2 C8          -3.7210    -0.9820     0.3020 cc         1 95J      -0.251500
      3 C3           2.4860     1.2980     0.7240 cc         1 95J       0.542300
      4 C2          -2.9190     1.3470    -0.0410 cc         1 95J      -0.501500
      5 C11         -4.0830    -2.3710     0.2580 cc         1 95J       0.334500
      6 C15         -3.9730    -0.1650     1.3810 cd         1 95J      -0.125000
      7 C13         -3.5160     1.1650     1.1840 cd         1 95J       0.003000
      8 C12          4.4500    -0.0910     0.5570 cc         1 95J      -0.249900
      9 C16          4.4890     0.8410     1.5670 cd         1 95J       0.347900
     10 C19         -3.8050    -3.1710    -0.8650 cc         1 95J      -0.241000
     11 C22         -4.2810    -4.4010    -0.5530 cd         1 95J       0.175900
     12 N10          3.3540     1.6400     1.6610 nd         1 95J      -0.706000
     13 N14         -4.6940    -3.0360     1.2260 nd         1 95J      -0.344300
     14 N4          -0.7420     2.7080     0.1010 ns         1 95J      -0.583300
     15 N9           1.3100     1.9980     0.6890 ns         1 95J      -0.470400
     16 O17         -1.9960     2.6890    -2.1230 o          1 95J      -0.518000
     17 O18         -2.9020     3.9820    -0.0830 o          1 95J      -0.518000
     18 O20         -4.8290    -4.3720     0.7010 os         1 95J      -0.057700
     19 O21          0.2360     1.0310    -1.0680 o          1 95J      -0.591100
     20 S1          -2.2120     2.8350    -0.6810 sy         1 95J       1.247300
     21 S5           2.9660    -0.0120    -0.3420 ss         1 95J       0.113600
     22 S6          -2.9070    -0.1170    -1.0000 ss         1 95J       0.446000
     23 Br23         5.8020    -1.3360     0.1370 br         1 95J      -0.018100
     24 H1          -4.4680    -0.4930     2.2910 ha         1 95J       0.156000
     25 H2          -3.6270     1.9510     1.9290 ha         1 95J       0.151000
     26 H3           5.3080     0.9860     2.2620 h4         1 95J       0.053100
     27 H4          -3.3160    -2.8690    -1.7820 ha         1 95J       0.162000
     28 H5          -4.2950    -5.3350    -1.1000 h4         1 95J       0.063100
     29 H6          -0.6890     3.3450     0.8740 hn         1 95J       0.350500
     30 H7           1.2120     2.7140     1.3890 hn         1 95J       0.348500
@<TRIPOS>BOND
     1     1    14 1   
     2     1    15 1   
     3     1    19 2   
     4     2     5 1   
     5     2     6 2   
     6     2    22 1   
     7     3    12 2   
     8     3    15 1   
     9     3    21 1   
    10     4     7 2   
    11     4    20 1   
    12     4    22 1   
    13     5    10 1   
    14     5    13 2   
    15     6     7 1   
    16     6    24 1   
    17     7    25 1   
    18     8     9 2   
    19     8    21 1   
    20     8    23 1   
    21     9    12 1   
    22     9    26 1   
    23    10    11 2   
    24    10    27 1   
    25    11    18 1   
    26    11    28 1   
    27    13    18 1   
    28    14    20 1   
    29    14    29 1   
    30    15    30 1   
    31    16    20 2   
    32    17    20 2   
@<TRIPOS>SUBSTRUCTURE
     1 95J         1 TEMP              0 ****  ****    0 ROOT
