@<TRIPOS>MOLECULE
95K
   55    57     1     0     0
SMALL
No Charge or Current Charge


@<TRIPOS>ATOM
      1 Br7         -5.9910     2.6960     0.1450 br         1 95K      -0.101100
      2 C2          -4.6920     1.2940     0.2230 ca         1 95K      -0.019900
      3 C3          -4.3260     0.6120    -0.9490 ca         1 95K      -0.082500
      4 C4          -3.3710    -0.4180    -0.8910 ca         1 95K      -0.108500
      5 C5          -2.7800    -0.7720     0.3380 ca         1 95K      -0.066300
      6 C6          -3.1510    -0.0820     1.5090 ca         1 95K      -0.108500
      7 C1          -4.1060     0.9490     1.4520 ca         1 95K      -0.082500
      8 C8          -1.7400    -1.8830     0.3960 c3         1 95K      -0.039100
      9 C9          -0.3290    -1.3670     0.0290 c3         1 95K       0.186800
     10 N10          0.7940    -2.3220     0.2900 n3         1 95K      -0.755600
     11 C23          0.6670    -3.5860    -0.5030 c3         1 95K       0.184800
     12 C24          1.6660    -4.7320    -0.1660 c3         1 95K      -0.062700
     13 C26          1.6520    -5.1080     1.3350 c3         1 95K      -0.085600
     14 C25          1.3930    -5.9720    -1.0470 c3         1 95K      -0.085600
     15 C11          2.1630    -1.6970     0.2390 c6         1 95K       0.199500
     16 C16          2.5410    -1.1210    -1.1530 c6         1 95K      -0.096900
     17 C15          3.9920    -0.5880    -1.1490 c6         1 95K       0.204300
     18 N14          4.1910     0.4000    -0.0520 nh         1 95K      -0.745300
     19 C13          3.8370    -0.1050     1.3030 c6         1 95K       0.204300
     20 C12          2.3770    -0.6070     1.3230 c6         1 95K      -0.096900
     21 C17          4.7820     1.6240    -0.2660 cc         1 95K       0.621400
     22 N21          5.0250     2.5470     0.6970 na         1 95K      -0.554000
     23 C20          5.6020     3.5740     0.0660 cc         1 95K       0.592400
     24 N22          5.9810     4.6730     0.7220 nv         1 95K      -1.011900
     25 N19          5.7300     3.3490    -1.2150 nd         1 95K      -0.399000
     26 N18          5.2010     2.0950    -1.4330 nd         1 95K      -0.405000
     27 H1          -4.7790     0.8810    -1.9010 ha         1 95K       0.129000
     28 H2          -3.0890    -0.9410    -1.8030 ha         1 95K       0.115000
     29 H3          -2.6990    -0.3420     2.4640 ha         1 95K       0.115000
     30 H4          -4.3900     1.4780     2.3590 ha         1 95K       0.129000
     31 H5          -1.7070    -2.3200     1.4010 hc         1 95K       0.056200
     32 H6          -2.0340    -2.6880    -0.2860 hc         1 95K       0.056200
     33 H7          -0.3360    -1.0720    -1.0290 h1         1 95K       0.036200
     34 H8          -0.1860    -0.4500     0.6100 h1         1 95K       0.036200
     35 H10         -0.3320    -4.0120    -0.3540 h1         1 95K       0.030700
     36 H11          0.7470    -3.3600    -1.5750 h1         1 95K       0.030700
     37 H12          2.6790    -4.3970    -0.4200 hc         1 95K       0.045700
     38 H13          0.6550    -5.4450     1.6430 hc         1 95K       0.033700
     39 H14          2.3650    -5.9160     1.5390 hc         1 95K       0.033700
     40 H15          1.9310    -4.2510     1.9600 hc         1 95K       0.033700
     41 H16          1.4520    -5.7120    -2.1110 hc         1 95K       0.033700
     42 H17          2.1330    -6.7580    -0.8500 hc         1 95K       0.033700
     43 H18          0.3950    -6.3820    -0.8480 hc         1 95K       0.033700
     44 H19          2.9070    -2.4700     0.4740 h1         1 95K       0.056700
     45 H20          2.4480    -1.8900    -1.9300 hc         1 95K       0.054950
     46 H21          1.8590    -0.3060    -1.4290 hc         1 95K       0.054950
     47 H22          4.6860    -1.4310    -1.0160 h1         1 95K       0.046700
     48 H23          4.2060    -0.1500    -2.1340 h1         1 95K       0.046700
     49 H24          4.5100    -0.9310     1.5790 h1         1 95K       0.046700
     50 H25          3.9520     0.6710     2.0720 h1         1 95K       0.046700
     51 H26          1.7180     0.2540     1.1610 hc         1 95K       0.054950
     52 H27          2.1390    -1.0130     2.3150 hc         1 95K       0.054950
     53 H28          4.8230     2.4670     1.6750 hn         1 95K       0.358000
     54 H29          5.5700     4.8440     1.6330 hn         1 95K       0.455500
     55 H30          6.2060     5.4880     0.1610 hn         1 95K       0.455500
@<TRIPOS>BOND
     1     1     2 1   
     2     2     3 ar  
     3     2     7 ar  
     4     3     4 ar  
     5     3    27 1   
     6     4     5 ar  
     7     4    28 1   
     8     5     6 ar  
     9     5     8 1   
    10     6     7 ar  
    11     6    29 1   
    12     7    30 1   
    13     8     9 1   
    14     8    31 1   
    15     8    32 1   
    16     9    10 1   
    17     9    33 1   
    18     9    34 1   
    19    10    11 1   
    20    10    15 1   
    21    11    12 1   
    22    11    35 1   
    23    11    36 1   
    24    12    13 1   
    25    12    14 1   
    26    12    37 1   
    27    13    38 1   
    28    13    39 1   
    29    13    40 1   
    30    14    41 1   
    31    14    42 1   
    32    14    43 1   
    33    15    16 1   
    34    15    20 1   
    35    15    44 1   
    36    16    17 1   
    37    16    45 1   
    38    16    46 1   
    39    17    18 1   
    40    17    47 1   
    41    17    48 1   
    42    18    19 1   
    43    18    21 1   
    44    19    20 1   
    45    19    49 1   
    46    19    50 1   
    47    20    51 1   
    48    20    52 1   
    49    21    22 1   
    50    21    26 2   
    51    22    23 1   
    52    22    53 1   
    53    23    24 1   
    54    23    25 2   
    55    24    54 1   
    56    24    55 1   
    57    25    26 1   
@<TRIPOS>SUBSTRUCTURE
     1 95K         1 TEMP              0 ****  ****    0 ROOT
