@<TRIPOS>MOLECULE
95K
   55    57     1     0     0
SMALL
abcg2


@<TRIPOS>ATOM
      1 BR7         -6.5350     1.5680    -0.2230 br         1 95K      -0.101100
      2 C2          -4.9860     0.5360     0.1060 ca         1 95K      -0.019900
      3 C3          -4.7600    -0.6120    -0.6390 ca         1 95K      -0.082500
      4 C4          -3.6210    -1.3640    -0.3860 ca         1 95K      -0.108500
      5 C5          -2.7080    -0.9920     0.5980 ca         1 95K      -0.066300
      6 C6          -2.9630     0.1660     1.3260 ca         1 95K      -0.108500
      7 C1          -4.0960     0.9340     1.0910 ca         1 95K      -0.082500
      8 C8          -1.4560    -1.7890     0.8260 c3         1 95K      -0.039100
      9 C9          -0.3190    -1.3250    -0.0890 c3         1 95K       0.186800
     10 N10          0.8550    -2.1620     0.0640 n3         1 95K      -0.755600
     11 C23          0.7900    -3.3790    -0.7230 c3         1 95K       0.184800
     12 C24          1.4740    -4.5800    -0.0690 c3         1 95K      -0.062700
     13 C26          0.8270    -4.9290     1.2650 c3         1 95K      -0.085600
     14 C25          1.4500    -5.7660    -1.0280 c3         1 95K      -0.085600
     15 C11          2.1330    -1.4760    -0.0320 c6         1 95K       0.199500
     16 C16          2.3370    -0.6410    -1.2990 c6         1 95K      -0.096900
     17 C15          3.7150     0.0020    -1.3170 c6         1 95K       0.204300
     18 N14          3.9200     0.8000    -0.1170 nh         1 95K      -0.745300
     19 C13          3.7680     0.0450     1.1220 c6         1 95K       0.204300
     20 C12          2.3980    -0.6090     1.1930 c6         1 95K      -0.096900
     21 C17          4.9500     1.7010    -0.1850 cc         1 95K       0.621400
     22 N21          5.2940     2.5270     0.8460 na         1 95K      -0.554000
     23 C20          6.2870     3.3150     0.3510 cc         1 95K       0.592400
     24 N22          6.9490     4.2370     1.1190 nv         1 95K      -1.011900
     25 N19          6.5350     3.0000    -0.8830 nd         1 95K      -0.399000
     26 N18          5.6960     1.9570    -1.2180 nd         1 95K      -0.405000
     27 H1          -5.4550    -0.9290    -1.4050 ha         1 95K       0.129000
     28 H2          -3.4500    -2.2630    -0.9660 ha         1 95K       0.115000
     29 H3          -2.2710     0.4800     2.0980 ha         1 95K       0.115000
     30 H4          -4.2700     1.8280     1.6750 ha         1 95K       0.129000
     31 H5          -1.1280    -1.6950     1.8630 hc         1 95K       0.056200
     32 H6          -1.6570    -2.8490     0.6510 hc         1 95K       0.056200
     33 H7          -0.6770    -1.2920    -1.1300 h1         1 95K       0.036200
     34 H8          -0.0730    -0.2930     0.1720 h1         1 95K       0.036200
     35 H10         -0.2620    -3.6380    -0.8760 h1         1 95K       0.030700
     36 H11          1.2040    -3.2320    -1.7340 h1         1 95K       0.030700
     37 H12          2.5240    -4.3280     0.1180 hc         1 95K       0.045700
     38 H13         -0.2190    -5.2170     1.1290 hc         1 95K       0.033700
     39 H14          1.3390    -5.7650     1.7460 hc         1 95K       0.033700
     40 H15          0.8510    -4.0790     1.9450 hc         1 95K       0.033700
     41 H16          1.9400    -5.5240    -1.9730 hc         1 95K       0.033700
     42 H17          1.9600    -6.6320    -0.6020 hc         1 95K       0.033700
     43 H18          0.4250    -6.0680    -1.2550 hc         1 95K       0.033700
     44 H19          2.9040    -2.2570    -0.0330 h1         1 95K       0.056700
     45 H20          2.2370    -1.2640    -2.1920 hc         1 95K       0.054950
     46 H21          1.5770     0.1430    -1.3650 hc         1 95K       0.054950
     47 H22          4.4890    -0.7750    -1.4030 h1         1 95K       0.046700
     48 H23          3.8140     0.6490    -2.1870 h1         1 95K       0.046700
     49 H24          4.5520    -0.7220     1.2040 h1         1 95K       0.046700
     50 H25          3.8800     0.7100     1.9790 h1         1 95K       0.046700
     51 H26          1.6380     0.1730     1.2850 hc         1 95K       0.054950
     52 H27          2.3450    -1.2220     2.0950 hc         1 95K       0.054950
     53 H28          4.8940     2.5750     1.7690 hn         1 95K       0.358000
     54 H29          6.3560     4.7810     1.7290 hn         1 95K       0.455500
     55 H30          7.5390     4.8420     0.5680 hn         1 95K       0.455500
@<TRIPOS>BOND
     1     1     2 1   
     2     2     3 ar  
     3     2     7 ar  
     4     3     4 ar  
     5     3    27 1   
     6     4     5 ar  
     7     4    28 1   
     8     5     6 ar  
     9     5     8 1   
    10     6     7 ar  
    11     6    29 1   
    12     7    30 1   
    13     8     9 1   
    14     8    31 1   
    15     8    32 1   
    16     9    10 1   
    17     9    33 1   
    18     9    34 1   
    19    10    11 1   
    20    10    15 1   
    21    11    12 1   
    22    11    35 1   
    23    11    36 1   
    24    12    13 1   
    25    12    14 1   
    26    12    37 1   
    27    13    38 1   
    28    13    39 1   
    29    13    40 1   
    30    14    41 1   
    31    14    42 1   
    32    14    43 1   
    33    15    16 1   
    34    15    20 1   
    35    15    44 1   
    36    16    17 1   
    37    16    45 1   
    38    16    46 1   
    39    17    18 1   
    40    17    47 1   
    41    17    48 1   
    42    18    19 1   
    43    18    21 1   
    44    19    20 1   
    45    19    49 1   
    46    19    50 1   
    47    20    51 1   
    48    20    52 1   
    49    21    22 1   
    50    21    26 2   
    51    22    23 1   
    52    22    53 1   
    53    23    24 1   
    54    23    25 2   
    55    24    54 1   
    56    24    55 1   
    57    25    26 1   
@<TRIPOS>SUBSTRUCTURE
     1 95K         1 TEMP              0 ****  ****    0 ROOT
