@<TRIPOS>MOLECULE
95L
   25    26     1     0     0
SMALL
No Charge or Current Charge


@<TRIPOS>ATOM
      1 NAA         26.8780    13.7530   -12.4650 n8         1 95L      -0.719200
      2 NAB         26.7520    12.6710   -13.4420 ns         1 95L      -0.403300
      3 CAD         27.8140    12.0920   -14.1490 c          1 95L       0.660700
      4 OAC         28.9650    12.4770   -13.9730 o          1 95L      -0.605100
      5 CAF         27.4660    10.9690   -15.0900 ca         1 95L      -0.351600
      6 CAL         26.2110    10.3590   -14.9920 ca         1 95L       0.416900
      7 NAM         25.8140     9.3390   -15.7740 nb         1 95L      -0.705000
      8 CAN         26.6530     8.8640   -16.7130 ca         1 95L       0.302000
      9 CAO         26.2300     7.7980   -17.5310 ca         1 95L      -0.072000
     10 CAP         27.0680     7.2710   -18.5280 ca         1 95L      -0.122000
     11 CAJ         28.3440     7.8140   -18.7160 ca         1 95L       0.156000
     12 FAK         29.1520     7.3150   -19.6770 f          1 95L      -0.177000
     13 CAI         28.7870     8.8750   -17.9130 ca         1 95L      -0.129000
     14 CAH         27.9460     9.4070   -16.8980 ca         1 95L      -0.129000
     15 CAG         28.3480    10.4760   -16.0630 ca         1 95L       0.444000
     16 NAE         29.5830    11.0400   -16.2060 nv         1 95L      -1.090000
     17 H1          26.3400    14.5850   -12.7500 hn         1 95L       0.397500
     18 H2          26.5180    13.4720   -11.5400 hn         1 95L       0.397500
     19 H3          25.8220    12.3080   -13.6500 hn         1 95L       0.304500
     20 H4          25.4770    10.6720   -14.2520 h4         1 95L       0.012100
     21 H5          25.2380     7.3790   -17.3880 ha         1 95L       0.138000
     22 H6          26.7280     6.4490   -19.1540 ha         1 95L       0.136000
     23 H7          29.7810     9.2720   -18.0960 ha         1 95L       0.123000
     24 H8          29.8590    11.6800   -15.4570 hn         1 95L       0.508500
     25 H9          30.3320    10.4830   -16.6080 hn         1 95L       0.508500
@<TRIPOS>BOND
     1     1     2 1   
     2     1    17 1   
     3     1    18 1   
     4     2     3 1   
     5     2    19 1   
     6     3     4 2   
     7     3     5 1   
     8     5     6 ar  
     9     5    15 ar  
    10     6     7 ar  
    11     6    20 1   
    12     7     8 ar  
    13     8     9 ar  
    14     8    14 ar  
    15     9    10 ar  
    16     9    21 1   
    17    10    11 ar  
    18    10    22 1   
    19    11    12 1   
    20    11    13 ar  
    21    13    14 ar  
    22    13    23 1   
    23    14    15 ar  
    24    15    16 1   
    25    16    24 1   
    26    16    25 1   
@<TRIPOS>SUBSTRUCTURE
     1 95L         1 TEMP              0 ****  ****    0 ROOT
