@<TRIPOS>MOLECULE
95L
   25    26     1     0     0
SMALL
abcg2


@<TRIPOS>ATOM
      1 NAA         26.8960    13.7000   -12.6740 n8         1 95L      -0.719200
      2 NAB         26.7420    12.6770   -13.5920 ns         1 95L      -0.403300
      3 CAD         27.8030    11.9670   -14.0210 c          1 95L       0.660700
      4 OAC         28.9550    12.2170   -13.6820 o          1 95L      -0.605100
      5 CAF         27.4720    10.8590   -14.9540 ca         1 95L      -0.351600
      6 CAL         26.2520    10.1630   -14.8410 ca         1 95L       0.416900
      7 NAM         25.8570     9.1850   -15.6070 nb         1 95L      -0.705000
      8 CAN         26.6860     8.8210   -16.6170 ca         1 95L       0.302000
      9 CAO         26.2530     7.7960   -17.4870 ca         1 95L      -0.072000
     10 CAP         27.0290     7.3750   -18.5320 ca         1 95L      -0.122000
     11 CAJ         28.2740     7.9800   -18.7270 ca         1 95L       0.156000
     12 FAK         29.0250     7.5620   -19.7570 f          1 95L      -0.177000
     13 CAI         28.7440     8.9690   -17.9140 ca         1 95L      -0.129000
     14 CAH         27.9510     9.4110   -16.8340 ca         1 95L      -0.129000
     15 CAG         28.3850    10.4500   -15.9360 ca         1 95L       0.444000
     16 NAE         29.5880    11.0130   -16.0820 nv         1 95L      -1.090000
     17 H1          26.6320    14.5760   -13.1070 hn         1 95L       0.397500
     18 H2          26.2650    13.5400   -11.9000 hn         1 95L       0.397500
     19 H3          25.8370    12.5360   -14.0160 hn         1 95L       0.304500
     20 H4          25.5730    10.4250   -14.0350 h4         1 95L       0.012100
     21 H5          25.2840     7.3510   -17.3070 ha         1 95L       0.138000
     22 H6          26.6920     6.5920   -19.1990 ha         1 95L       0.136000
     23 H7          29.7150     9.3940   -18.1330 ha         1 95L       0.123000
     24 H8          29.9280    11.6210   -15.3540 hn         1 95L       0.508500
     25 H9          30.2690    10.6400   -16.7180 hn         1 95L       0.508500
@<TRIPOS>BOND
     1     1     2 1   
     2     1    17 1   
     3     1    18 1   
     4     2     3 1   
     5     2    19 1   
     6     3     4 2   
     7     3     5 1   
     8     5     6 ar  
     9     5    15 ar  
    10     6     7 ar  
    11     6    20 1   
    12     7     8 ar  
    13     8     9 ar  
    14     8    14 ar  
    15     9    10 ar  
    16     9    21 1   
    17    10    11 ar  
    18    10    22 1   
    19    11    12 1   
    20    11    13 ar  
    21    13    14 ar  
    22    13    23 1   
    23    14    15 ar  
    24    15    16 1   
    25    16    24 1   
    26    16    25 1   
@<TRIPOS>SUBSTRUCTURE
     1 95L         1 TEMP              0 ****  ****    0 ROOT
