@<TRIPOS>MOLECULE
95M
   36    37     1     0     0
SMALL
abcg2


@<TRIPOS>ATOM
      1 C6          -0.1610     1.4970     0.2880 c          1 95M       0.683100
      2 C10         -4.7260     0.0630    -0.2460 cc         1 95M      -0.210900
      3 C3          -2.4790     0.9300    -0.2040 cc         1 95M       0.590300
      4 C2           3.0490     0.9420    -0.1410 cc         1 95M      -0.515500
      5 C11          3.8740    -1.3310    -0.5600 cc         1 95M      -0.179300
      6 C14          4.1450    -0.4660    -1.5890 cd         1 95M      -0.172000
      7 C13         -3.7760    -0.7830     0.2160 cd         1 95M       0.353900
      8 C12          3.6760     0.8420    -1.3520 cd         1 95M       0.011000
      9 C19          4.2600    -2.7700    -0.4530 c3         1 95M      -0.016100
     10 C20          5.7620    -2.9780    -0.2040 c3         1 95M      -0.056700
     11 C21          6.2100    -2.3580     1.1130 c3         1 95M      -0.091100
     12 C22          6.0860    -4.4670    -0.2450 c3         1 95M      -0.091100
     13 N4           0.7830     2.4470    -0.0470 ns         1 95M      -0.595300
     14 N8          -1.3670     1.7280    -0.3280 ns         1 95M      -0.486400
     15 N9          -2.5060    -0.2820     0.2300 nd         1 95M      -0.656000
     16 O15          2.3160     2.2430     1.9620 o          1 95M      -0.524000
     17 O16          2.9850     3.5300    -0.1010 o          1 95M      -0.524000
     18 O17          0.0740     0.5840     1.0390 o          1 95M      -0.535100
     19 S1           2.3580     2.3840     0.5240 sy         1 95M       1.246300
     20 S5          -4.0220     1.5810    -0.6750 ss         1 95M      -0.044400
     21 S7           3.0310    -0.5480     0.7080 ss         1 95M       0.424000
     22 H1           4.6700    -0.7620    -2.4860 ha         1 95M       0.138000
     23 H2          -3.9610    -1.7930     0.5510 h4         1 95M       0.058100
     24 H3           3.7980     1.6660    -2.0400 ha         1 95M       0.145000
     25 H4           3.6910    -3.2570     0.3440 hc         1 95M       0.056700
     26 H5           3.9780    -3.2700    -1.3830 hc         1 95M       0.056700
     27 H6           6.3050    -2.4870    -1.0200 hc         1 95M       0.050700
     28 H7           7.2750    -2.5270     1.2780 hc         1 95M       0.036533
     29 H8           6.0430    -1.2800     1.1390 hc         1 95M       0.036533
     30 H9           5.6690    -2.7980     1.9550 hc         1 95M       0.036533
     31 H10          5.8020    -4.9120    -1.2000 hc         1 95M       0.036533
     32 H11          7.1530    -4.6380    -0.1020 hc         1 95M       0.036533
     33 H12          5.5560    -5.0050     0.5450 hc         1 95M       0.036533
     34 H13          0.6310     3.1050    -0.8030 hn         1 95M       0.340500
     35 H14         -1.4720     2.5780    -0.8640 hn         1 95M       0.336500
     36 BR18        -6.5400    -0.2480    -0.4480 br         1 95M      -0.010100
@<TRIPOS>BOND
     1     1    13 1   
     2     1    14 1   
     3     1    18 2   
     4     2     7 2   
     5     2    20 1   
     6     2    36 1   
     7     3    14 1   
     8     3    15 2   
     9     3    20 1   
    10     4     8 2   
    11     4    19 1   
    12     4    21 1   
    13     5     6 2   
    14     5     9 1   
    15     5    21 1   
    16     6     8 1   
    17     6    22 1   
    18     7    15 1   
    19     7    23 1   
    20     8    24 1   
    21     9    10 1   
    22     9    25 1   
    23     9    26 1   
    24    10    11 1   
    25    10    12 1   
    26    10    27 1   
    27    11    28 1   
    28    11    29 1   
    29    11    30 1   
    30    12    31 1   
    31    12    32 1   
    32    12    33 1   
    33    13    19 1   
    34    13    34 1   
    35    14    35 1   
    36    16    19 2   
    37    17    19 2   
@<TRIPOS>SUBSTRUCTURE
     1 95M         1 TEMP              0 ****  ****    0 ROOT
