@<TRIPOS>MOLECULE
95M
   36    37     1     0     0
SMALL
No Charge or Current Charge


@<TRIPOS>ATOM
      1 C6          -0.1380     1.4600     0.4440 c          1 95M       0.683100
      2 C10         -4.6690     0.0240    -0.5860 cc         1 95M      -0.210900
      3 C3          -2.4460     0.9060    -0.2640 cc         1 95M       0.590300
      4 C2           3.0310     1.0080    -0.0200 cc         1 95M      -0.515500
      5 C11          3.8490    -1.3120    -0.4660 cc         1 95M      -0.179300
      6 C14          3.9620    -0.4740    -1.5490 cd         1 95M      -0.172000
      7 C13         -3.9600    -0.5690     0.4320 cd         1 95M       0.353900
      8 C12          3.5010     0.8450    -1.2990 cd         1 95M       0.011000
      9 C19          4.2370    -2.7660    -0.3840 c3         1 95M      -0.016100
     10 C20          5.7660    -2.9970    -0.2720 c3         1 95M      -0.056700
     11 C21          6.3690    -2.3460     0.9960 c3         1 95M      -0.091100
     12 C22          6.1120    -4.5020    -0.3410 c3         1 95M      -0.091100
     13 N4           0.8280     2.3270     0.0660 ns         1 95M      -0.595300
     14 N8          -1.2600     1.5990    -0.3250 ns         1 95M      -0.486400
     15 N9          -2.6820    -0.0580     0.6130 nd         1 95M      -0.656000
     16 O15          2.2980     2.3210     2.1550 o          1 95M      -0.524000
     17 O16          2.9710     3.6420     0.0430 o          1 95M      -0.524000
     18 O17         -0.0110     0.6610     1.3540 o          1 95M      -0.535100
     19 S1           2.3660     2.4790     0.6990 sy         1 95M       1.246300
     20 S5          -3.7500     1.2680    -1.3720 ss         1 95M      -0.044400
     21 S7           3.1450    -0.4650     0.9170 ss         1 95M       0.424000
     22 H1           4.3680    -0.7890    -2.5060 ha         1 95M       0.138000
     23 H2          -4.3170    -1.3690     1.0690 h4         1 95M       0.058100
     24 H3           3.5200     1.6370    -2.0460 ha         1 95M       0.145000
     25 H4           3.7360    -3.2390     0.4700 hc         1 95M       0.056700
     26 H5           3.8630    -3.2820    -1.2780 hc         1 95M       0.056700
     27 H6           6.2360    -2.5180    -1.1400 hc         1 95M       0.050700
     28 H7           7.4490    -2.5310     1.0480 hc         1 95M       0.036533
     29 H8           6.2190    -1.2600     0.9900 hc         1 95M       0.036533
     30 H9           5.9070    -2.7540     1.9030 hc         1 95M       0.036533
     31 H10          5.7330    -4.9450    -1.2700 hc         1 95M       0.036533
     32 H11          7.1990    -4.6510    -0.3160 hc         1 95M       0.036533
     33 H12          5.6720    -5.0440     0.5040 hc         1 95M       0.036533
     34 H13          0.6950     2.9490    -0.7090 hn         1 95M       0.340500
     35 H14         -1.2030     2.3090    -1.0370 hn         1 95M       0.336500
     36 Br18        -6.4250    -0.4050    -1.1210 br         1 95M      -0.010100
@<TRIPOS>BOND
     1     1    13 1   
     2     1    14 1   
     3     1    18 2   
     4     2     7 2   
     5     2    20 1   
     6     2    36 1   
     7     3    14 1   
     8     3    15 2   
     9     3    20 1   
    10     4     8 2   
    11     4    19 1   
    12     4    21 1   
    13     5     6 2   
    14     5     9 1   
    15     5    21 1   
    16     6     8 1   
    17     6    22 1   
    18     7    15 1   
    19     7    23 1   
    20     8    24 1   
    21     9    10 1   
    22     9    25 1   
    23     9    26 1   
    24    10    11 1   
    25    10    12 1   
    26    10    27 1   
    27    11    28 1   
    28    11    29 1   
    29    11    30 1   
    30    12    31 1   
    31    12    32 1   
    32    12    33 1   
    33    13    19 1   
    34    13    34 1   
    35    14    35 1   
    36    16    19 2   
    37    17    19 2   
@<TRIPOS>SUBSTRUCTURE
     1 95M         1 TEMP              0 ****  ****    0 ROOT
