@<TRIPOS>MOLECULE
95N
   46    48     1     0     0
SMALL
No Charge or Current Charge


@<TRIPOS>ATOM
      1 Br7         -6.7650     1.6050     0.5250 br         1 95N      -0.100100
      2 C2          -5.2170     0.4840     0.5860 ca         1 95N      -0.019900
      3 C1          -4.9310    -0.3760    -0.4870 ca         1 95N      -0.083000
      4 C6          -3.7920    -1.2000    -0.4420 ca         1 95N      -0.108500
      5 C5          -2.9360    -1.1680     0.6760 ca         1 95N      -0.068300
      6 C4          -3.2280    -0.3010     1.7480 ca         1 95N      -0.108500
      7 C3          -4.3660     0.5230     1.7040 ca         1 95N      -0.083000
      8 C8          -1.6980    -2.0560     0.7180 c3         1 95N      -0.035100
      9 C9          -0.5150    -1.4310    -0.0610 c3         1 95N       0.170800
     10 N10          0.8220    -2.0800     0.1340 n3         1 95N      -0.730600
     11 C23          0.7810    -3.5350    -0.1960 c3         1 95N       0.157100
     12 C11          1.9580    -1.3480    -0.5480 c6         1 95N       0.193500
     13 C12          3.3430    -2.0090    -0.2630 c6         1 95N      -0.086400
     14 C13          4.5140    -1.2380    -0.9100 c6         1 95N       0.215300
     15 N14          4.5090     0.1820    -0.4810 nh         1 95N      -0.762300
     16 C15          3.2380     0.8840    -0.7780 c6         1 95N       0.215300
     17 C16          2.0430     0.1540    -0.1280 c6         1 95N      -0.086400
     18 C17          5.6540     0.8430    -0.1050 cc         1 95N       0.705400
     19 N18          5.7610     2.1680     0.2330 na         1 95N      -0.249700
     20 N19          7.0510     2.4900     0.5550 nc         1 95N      -0.600800
     21 C20          7.6100     1.3190     0.3900 cd         1 95N       0.769900
     22 N21          6.8390     0.2900    -0.0110 nd         1 95N      -0.802000
     23 N22          8.8990     1.1360     0.5770 nv         1 95N      -1.003900
     24 H1          -5.5900    -0.4050    -1.3530 ha         1 95N       0.129000
     25 H2          -3.5760    -1.8620    -1.2780 ha         1 95N       0.115500
     26 H3          -2.5720    -0.2630     2.6150 ha         1 95N       0.115500
     27 H4          -4.5870     1.1900     2.5340 ha         1 95N       0.129000
     28 H5          -1.3910    -2.2280     1.7560 hc         1 95N       0.057700
     29 H6          -1.9470    -3.0360     0.2970 hc         1 95N       0.057700
     30 H7          -0.7710    -1.4090    -1.1290 h1         1 95N       0.034200
     31 H8          -0.4750    -0.3910     0.2810 h1         1 95N       0.034200
     32 H10          0.6430    -3.6890    -1.2750 h1         1 95N       0.031367
     33 H11          1.6990    -4.0480     0.1150 h1         1 95N       0.031367
     34 H12         -0.0310    -4.0490     0.3300 h1         1 95N       0.031367
     35 H13          1.7950    -1.3790    -1.6360 h1         1 95N       0.021700
     36 H14          3.5060    -2.0780     0.8210 hc         1 95N       0.060200
     37 H15          3.3820    -3.0310    -0.6560 hc         1 95N       0.060200
     38 H16          5.4530    -1.7420    -0.6400 h1         1 95N       0.047200
     39 H17          4.4240    -1.2950    -2.0050 h1         1 95N       0.047200
     40 H18          3.2530     1.9210    -0.4150 h1         1 95N       0.047200
     41 H19          3.0860     0.9280    -1.8670 h1         1 95N       0.047200
     42 H20          1.1420     0.7000    -0.4290 hc         1 95N       0.060200
     43 H21          2.1150     0.2310     0.9640 hc         1 95N       0.060200
     44 H22          4.9970     2.8340     0.2480 hn         1 95N       0.372000
     45 H23          9.2770     0.3120     0.1310 hn         1 95N       0.454500
     46 H24          9.4660     1.9720     0.5480 hn         1 95N       0.454500
@<TRIPOS>BOND
     1     1     2 1   
     2     2     3 ar  
     3     2     7 ar  
     4     3     4 ar  
     5     3    24 1   
     6     4     5 ar  
     7     4    25 1   
     8     5     6 ar  
     9     5     8 1   
    10     6     7 ar  
    11     6    26 1   
    12     7    27 1   
    13     8     9 1   
    14     8    28 1   
    15     8    29 1   
    16     9    10 1   
    17     9    30 1   
    18     9    31 1   
    19    10    11 1   
    20    10    12 1   
    21    11    32 1   
    22    11    33 1   
    23    11    34 1   
    24    12    13 1   
    25    12    17 1   
    26    12    35 1   
    27    13    14 1   
    28    13    36 1   
    29    13    37 1   
    30    14    15 1   
    31    14    38 1   
    32    14    39 1   
    33    15    16 1   
    34    15    18 1   
    35    16    17 1   
    36    16    40 1   
    37    16    41 1   
    38    17    42 1   
    39    17    43 1   
    40    18    19 1   
    41    18    22 2   
    42    19    20 1   
    43    19    44 1   
    44    20    21 2   
    45    21    22 1   
    46    21    23 1   
    47    23    45 1   
    48    23    46 1   
@<TRIPOS>SUBSTRUCTURE
     1 95N         1 TEMP              0 ****  ****    0 ROOT
