@<TRIPOS>MOLECULE
95N
   46    48     1     0     0
SMALL
bcc


@<TRIPOS>ATOM
      1 BR7         -6.9090     1.0890    -0.3130 br         1 95N      -0.100100
      2 C2          -5.2790     0.2180     0.0820 ca         1 95N      -0.019900
      3 C1          -4.9920    -1.0000    -0.5170 ca         1 95N      -0.101000
      4 C6          -3.7940    -1.6320    -0.2170 ca         1 95N      -0.126500
      5 C5          -2.8780    -1.0700     0.6700 ca         1 95N      -0.068300
      6 C4          -3.1940     0.1540     1.2510 ca         1 95N      -0.126500
      7 C3          -4.3880     0.8040     0.9670 ca         1 95N      -0.101000
      8 C8          -1.5630    -1.7400     0.9440 c3         1 95N      -0.035100
      9 C9          -0.5240    -1.3700    -0.1170 c3         1 95N       0.170800
     10 N10          0.7590    -2.0160     0.1180 n3         1 95N      -0.730600
     11 C23          0.7430    -3.3630    -0.4180 c3         1 95N       0.157100
     12 C11          1.8830    -1.1970    -0.3350 c6         1 95N       0.193500
     13 C12          3.1960    -1.9730    -0.3980 c6         1 95N      -0.086400
     14 C13          4.3450    -1.0790    -0.8320 c6         1 95N       0.215300
     15 N14          4.4670     0.0840     0.0330 nh         1 95N      -0.762300
     16 C15          3.2530     0.8660     0.1820 c6         1 95N       0.215300
     17 C16          2.0930    -0.0150     0.6120 c6         1 95N      -0.086400
     18 C17          5.6700     0.7100     0.0760 cc         1 95N       0.705400
     19 N18          5.8760     1.9500     0.5360 na         1 95N      -0.199400
     20 N19          7.2050     2.2580     0.4860 nc         1 95N      -0.600800
     21 C20          7.7170     1.1600    -0.0120 cd         1 95N       0.769900
     22 N21          6.8270     0.1780    -0.2870 nd         1 95N      -0.802000
     23 N22          9.0650     0.9740    -0.1950 nv         1 95N      -0.893500
     24 H1          -5.6860    -1.4620    -1.2070 ha         1 95N       0.147000
     25 H2          -3.5740    -2.5850    -0.6830 ha         1 95N       0.133500
     26 H3          -2.5020     0.6160     1.9460 ha         1 95N       0.133500
     27 H4          -4.6090     1.7530     1.4370 ha         1 95N       0.147000
     28 H5          -1.1830    -1.4430     1.9240 hc         1 95N       0.057700
     29 H6          -1.7040    -2.8230     0.9740 hc         1 95N       0.057700
     30 H7          -0.9150    -1.6080    -1.1190 h1         1 95N       0.034200
     31 H8          -0.4010    -0.2860    -0.0980 h1         1 95N       0.034200
     32 H10          0.7500    -3.3980    -1.5190 h1         1 95N       0.031367
     33 H11          1.5870    -3.9480    -0.0550 h1         1 95N       0.031367
     34 H12         -0.1580    -3.8770    -0.0830 h1         1 95N       0.031367
     35 H13          1.6890    -0.8030    -1.3510 h1         1 95N       0.021700
     36 H14          3.4170    -2.4080     0.5820 hc         1 95N       0.060200
     37 H15          3.1390    -2.7930    -1.1150 hc         1 95N       0.060200
     38 H16          5.2760    -1.6400    -0.7980 h1         1 95N       0.047200
     39 H17          4.1940    -0.7640    -1.8730 h1         1 95N       0.047200
     40 H18          3.3960     1.6300     0.9460 h1         1 95N       0.047200
     41 H19          3.0050     1.3820    -0.7550 h1         1 95N       0.047200
     42 H20          1.2060     0.6180     0.6670 hc         1 95N       0.060200
     43 H21          2.2770    -0.4030     1.6170 hc         1 95N       0.060200
     44 H22          5.2170     2.6320     0.8710 hn         1 95N       0.321700
     45 H23          9.2840     0.3090    -0.9210 hn         1 95N       0.399300
     46 H24          9.5880     1.8280    -0.3130 hn         1 95N       0.399300
@<TRIPOS>BOND
     1     1     2 1   
     2     2     3 ar  
     3     2     7 ar  
     4     3     4 ar  
     5     3    24 1   
     6     4     5 ar  
     7     4    25 1   
     8     5     6 ar  
     9     5     8 1   
    10     6     7 ar  
    11     6    26 1   
    12     7    27 1   
    13     8     9 1   
    14     8    28 1   
    15     8    29 1   
    16     9    10 1   
    17     9    30 1   
    18     9    31 1   
    19    10    11 1   
    20    10    12 1   
    21    11    32 1   
    22    11    33 1   
    23    11    34 1   
    24    12    13 1   
    25    12    17 1   
    26    12    35 1   
    27    13    14 1   
    28    13    36 1   
    29    13    37 1   
    30    14    15 1   
    31    14    38 1   
    32    14    39 1   
    33    15    16 1   
    34    15    18 1   
    35    16    17 1   
    36    16    40 1   
    37    16    41 1   
    38    17    42 1   
    39    17    43 1   
    40    18    19 1   
    41    18    22 2   
    42    19    20 1   
    43    19    44 1   
    44    20    21 2   
    45    21    22 1   
    46    21    23 1   
    47    23    45 1   
    48    23    46 1   
@<TRIPOS>SUBSTRUCTURE
     1 95N         1 TEMP              0 ****  ****    0 ROOT
