@<TRIPOS>MOLECULE
95O
   45    49     1     0     0
SMALL
bcc


@<TRIPOS>ATOM
      1 C1          13.4910    25.4830    33.1080 cc         1 95O       0.325800
      2 C2          14.0390    23.6960    34.2020 cc         1 95O      -0.086300
      3 C3          13.0390    23.2700    32.0470 cc         1 95O      -0.095300
      4 C8          10.4070    21.6300    31.2990 c6         1 95O       0.030700
      5 C9           9.7670    22.5970    30.3080 c6         1 95O      -0.031100
      6 C10          9.5740    21.9440    28.9680 ca         1 95O      -0.063300
      7 C11          8.7180    22.5110    28.0240 ca         1 95O      -0.122000
      8 C12          8.5420    21.9290    26.7800 ca         1 95O      -0.118000
      9 C13          9.2280    20.7630    26.4600 ca         1 95O      -0.124000
     10 C14         10.0790    20.1930    27.3910 ca         1 95O      -0.119000
     11 C15         10.2580    20.7740    28.6440 ca         1 95O      -0.090300
     12 C16         11.1810    20.0950    29.6310 c6         1 95O       0.133000
     13 C18          9.3850    20.5810    31.7380 c          1 95O       0.696500
     14 N5           9.5060    19.3480    31.2280 ns         1 95O      -0.566900
     15 C17         10.5240    18.8950    30.3030 c6         1 95O       0.094000
     16 N4          11.5690    21.0220    30.6780 n          1 95O      -0.467800
     17 O           13.6440    20.1420    30.8420 o          1 95O      -0.575100
     18 C4          13.1670    21.9400    32.2760 cd         1 95O      -0.111600
     19 N2          13.4840    24.1210    33.0260 na         1 95O      -0.065200
     20 C           12.9700    26.3760    32.0510 c3         1 95O      -0.102400
     21 C5          13.7520    21.4440    33.4740 cd         1 95O      -0.225000
     22 C6          14.1880    22.2980    34.4560 cc         1 95O       0.224600
     23 N3          14.7900    21.9190    35.6120 nv         1 95O      -0.819200
     24 N1          14.3580    24.7290    34.9440 nd         1 95O      -0.098000
     25 N           14.0120    25.8320    34.2540 nd         1 95O      -0.355700
     26 H1          12.6340    23.7140    31.1490 h4         1 95O       0.174000
     27 H2          10.7000    22.1640    32.2000 h1         1 95O       0.097700
     28 H3          10.4150    23.4720    30.2070 hc         1 95O       0.068200
     29 H4           8.8170    22.9630    30.7010 hc         1 95O       0.068200
     30 H5           8.1810    23.4180    28.2770 ha         1 95O       0.133000
     31 H6           7.8710    22.3820    26.0610 ha         1 95O       0.135000
     32 H7           9.1010    20.3020    25.4890 ha         1 95O       0.135000
     33 H8          10.6180    19.2860    27.1420 ha         1 95O       0.131000
     34 H9          12.0720    19.7510    29.1080 h1         1 95O       0.102700
     35 H10          8.8320    18.6650    31.5440 hn         1 95O       0.321500
     36 H11         10.0650    18.2470    29.5560 h1         1 95O       0.056700
     37 H12         11.2850    18.3090    30.8260 h1         1 95O       0.056700
     38 H13         13.1000    27.4120    32.3530 hc         1 95O       0.060367
     39 H14         13.4940    26.2260    31.1050 hc         1 95O       0.060367
     40 H15         11.9070    26.2030    31.8710 hc         1 95O       0.060367
     41 H16         13.8430    20.3750    33.6150 ha         1 95O       0.155000
     42 H17         14.8010    22.5800    36.3710 hn         1 95O       0.427300
     43 H18         14.6850    20.9600    35.8990 hn         1 95O       0.427300
     44 C7          12.8110    20.9530    31.2120 c          1 95O       0.694700
     45 O1           8.4930    20.9040    32.5080 o          1 95O      -0.636500
@<TRIPOS>BOND
     1     1    19 1   
     2     1    20 1   
     3     1    25 2   
     4     2    19 1   
     5     2    22 1   
     6     2    24 2   
     7     3    18 2   
     8     3    19 1   
     9     3    26 1   
    10     4     5 1   
    11     4    13 1   
    12     4    16 1   
    13     4    27 1   
    14     5     6 1   
    15     5    28 1   
    16     5    29 1   
    17     6     7 ar  
    18     6    11 ar  
    19     7     8 ar  
    20     7    30 1   
    21     8     9 ar  
    22     8    31 1   
    23     9    10 ar  
    24     9    32 1   
    25    10    11 ar  
    26    10    33 1   
    27    11    12 1   
    28    12    15 1   
    29    12    16 1   
    30    12    34 1   
    31    13    14 1   
    32    13    45 2   
    33    14    15 1   
    34    14    35 1   
    35    15    36 1   
    36    15    37 1   
    37    16    44 1   
    38    17    44 2   
    39    18    21 1   
    40    18    44 1   
    41    20    38 1   
    42    20    39 1   
    43    20    40 1   
    44    21    22 2   
    45    21    41 1   
    46    22    23 1   
    47    23    42 1   
    48    23    43 1   
    49    24    25 1   
@<TRIPOS>SUBSTRUCTURE
     1 95O         1 TEMP              0 ****  ****    0 ROOT
