@<TRIPOS>MOLECULE
95O
   45    49     1     0     0
SMALL
No Charge or Current Charge


@<TRIPOS>ATOM
      1 C1          13.1760    25.3780    33.0600 cc         1 95O       0.325800
      2 C2          14.2740    23.7400    34.0930 cc         1 95O      -0.137000
      3 C3          12.8210    23.0970    32.2440 cc         1 95O      -0.128000
      4 C8          10.2430    21.6410    31.4020 c6         1 95O       0.030700
      5 C9           9.6750    22.5880    30.3030 c6         1 95O      -0.031100
      6 C10          9.6970    22.0050    28.8870 ca         1 95O      -0.063300
      7 C11          9.0650    22.7020    27.8400 ca         1 95O      -0.104000
      8 C12          9.0950    22.1940    26.5300 ca         1 95O      -0.100000
      9 C13          9.7610    20.9870    26.2610 ca         1 95O      -0.106000
     10 C14         10.3950    20.2880    27.3020 ca         1 95O      -0.101000
     11 C15         10.3690    20.7930    28.6170 ca         1 95O      -0.090300
     12 C16         11.0420    20.0120    29.7500 c6         1 95O       0.133000
     13 C18          9.1360    20.6520    31.8680 c          1 95O       0.554000
     14 N5           9.0830    19.4230    31.2460 ns         1 95O      -0.499900
     15 C17         10.0810    18.9130    30.2820 c6         1 95O       0.094000
     16 N4          11.4440    20.9240    30.8540 n          1 95O      -0.400800
     17 O           13.1520    19.5640    31.5490 o          1 95O      -0.575100
     18 C4          13.1630    21.7570    32.4920 cd         1 95O      -0.111600
     19 N2          13.3700    24.0280    33.1300 na         1 95O       0.036200
     20 C           12.2760    26.1220    32.1120 c3         1 95O      -0.102400
     21 C5          14.1270    21.4250    33.5360 cd         1 95O      -0.207000
     22 C6          14.6790    22.4000    34.3260 cc         1 95O       0.363000
     23 N3          15.5860    22.1540    35.3110 nv         1 95O      -1.068000
     24 N1          14.6210    24.8850    34.6610 nd         1 95O      -0.098000
     25 N           13.9330    25.9110    34.0140 nd         1 95O      -0.355700
     26 H1          12.1970    23.4660    31.4420 h4         1 95O       0.156000
     27 H2          10.4890    22.2190    32.3020 h1         1 95O       0.097700
     28 H3          10.2610    23.5160    30.2920 hc         1 95O       0.068200
     29 H4           8.6530    22.8930    30.5690 hc         1 95O       0.068200
     30 H5           8.5520    23.6400    28.0400 ha         1 95O       0.115000
     31 H6           8.6040    22.7360    25.7250 ha         1 95O       0.117000
     32 H7           9.7840    20.5930    25.2480 ha         1 95O       0.117000
     33 H8          10.9050    19.3520    27.0850 ha         1 95O       0.113000
     34 H9          11.9350    19.5220    29.3310 h1         1 95O       0.102700
     35 H10          8.3850    18.7790    31.6010 hn         1 95O       0.321500
     36 H11          9.5620    18.4240    29.4450 h1         1 95O       0.056700
     37 H12         10.6740    18.1440    30.7960 h1         1 95O       0.056700
     38 H13         12.2760    27.1960    32.3310 hc         1 95O       0.060367
     39 H14         12.6080    25.9880    31.0760 hc         1 95O       0.060367
     40 H15         11.2440    25.7620    32.1920 hc         1 95O       0.060367
     41 H16         14.4160    20.3920    33.6950 ha         1 95O       0.137000
     42 H17         15.7970    22.9040    35.9660 hn         1 95O       0.482500
     43 H18         15.7100    21.2010    35.6460 hn         1 95O       0.482500
     44 C7          12.6120    20.6620    31.6140 c          1 95O       0.627700
     45 O1           8.4670    20.8460    32.8710 o          1 95O      -0.561000
@<TRIPOS>BOND
     1     1    19 1   
     2     1    20 1   
     3     1    25 2   
     4     2    19 1   
     5     2    22 1   
     6     2    24 2   
     7     3    18 2   
     8     3    19 1   
     9     3    26 1   
    10     4     5 1   
    11     4    13 1   
    12     4    16 1   
    13     4    27 1   
    14     5     6 1   
    15     5    28 1   
    16     5    29 1   
    17     6     7 ar  
    18     6    11 ar  
    19     7     8 ar  
    20     7    30 1   
    21     8     9 ar  
    22     8    31 1   
    23     9    10 ar  
    24     9    32 1   
    25    10    11 ar  
    26    10    33 1   
    27    11    12 1   
    28    12    15 1   
    29    12    16 1   
    30    12    34 1   
    31    13    14 1   
    32    13    45 2   
    33    14    15 1   
    34    14    35 1   
    35    15    36 1   
    36    15    37 1   
    37    16    44 1   
    38    17    44 2   
    39    18    21 1   
    40    18    44 1   
    41    20    38 1   
    42    20    39 1   
    43    20    40 1   
    44    21    22 2   
    45    21    41 1   
    46    22    23 1   
    47    23    42 1   
    48    23    43 1   
    49    24    25 1   
@<TRIPOS>SUBSTRUCTURE
     1 95O         1 TEMP              0 ****  ****    0 ROOT
