@<TRIPOS>MOLECULE
95P
   24    25     1     0     0
SMALL
abcg2


@<TRIPOS>ATOM
      1 C5          -2.8930    -0.7510     0.2780 cc         1 95P       0.587300
      2 C7           3.4870     0.9360    -0.9640 cc         1 95P      -0.008000
      3 C9          -0.6700    -1.6470    -0.1720 c          1 95P       0.684100
      4 C10          3.9090     0.5270     0.2700 cd         1 95P      -0.088900
      5 C2           2.5550    -1.2160    -0.3350 cc         1 95P      -0.503500
      6 C4           3.3750    -0.7290     0.6370 cd         1 95P       0.038000
      7 C14         -4.2390     0.6320    -0.7540 cd         1 95P       0.354900
      8 C13         -5.0320     0.3560     0.3070 cc         1 95P      -0.208900
      9 N11         -1.8020    -1.5270     0.5920 ns         1 95P      -0.481400
     10 N12         -3.0290    -0.0010    -0.7600 nd         1 95P      -0.654000
     11 N6           0.2720    -2.4740     0.4140 ns         1 95P      -0.603300
     12 O15          1.5470    -3.1740    -1.6660 o          1 95P      -0.519000
     13 O16          2.4380    -3.6090     0.6540 o          1 95P      -0.519000
     14 O17         -0.4790    -1.1070    -1.2330 o          1 95P      -0.537100
     15 S1           1.7520    -2.7640    -0.2970 sy         1 95P       1.247300
     16 S3           2.4220    -0.1840    -1.6980 ss         1 95P       0.492000
     17 S8          -4.2460    -0.7550     1.3720 ss         1 95P      -0.042400
     18 BR2         -6.7250     1.0080     0.6750 br         1 95P      -0.007100
     19 CL18         3.9010     2.3760    -1.7520 cl         1 95P      -0.100000
     20 H1           3.5980    -1.2350     1.5650 ha         1 95P       0.161000
     21 H2          -4.5000     1.2980    -1.5640 h4         1 95P       0.059100
     22 H3          -1.8500    -2.0530     1.4530 hn         1 95P       0.336500
     23 H4           0.1720    -2.8210     1.3610 hn         1 95P       0.345500
     24 BR1          5.0680     1.5090     1.3390 br         1 95P      -0.034100
@<TRIPOS>BOND
     1     1     9 1   
     2     1    10 2   
     3     1    17 1   
     4     2     4 2   
     5     2    16 1   
     6     2    19 1   
     7     3     9 1   
     8     3    11 1   
     9     3    14 2   
    10     4     6 1   
    11     4    24 1   
    12     5     6 2   
    13     5    15 1   
    14     5    16 1   
    15     6    20 1   
    16     7     8 2   
    17     7    10 1   
    18     7    21 1   
    19     8    17 1   
    20     8    18 1   
    21     9    22 1   
    22    11    15 1   
    23    11    23 1   
    24    12    15 2   
    25    13    15 2   
@<TRIPOS>SUBSTRUCTURE
     1 95P         1 TEMP              0 ****  ****    0 ROOT
