@<TRIPOS>MOLECULE
95P
   24    25     1     0     0
SMALL
No Charge or Current Charge


@<TRIPOS>ATOM
      1 C5          -2.8140    -0.7010     0.3100 cc         1 95P       0.587300
      2 C7           3.5300     0.8940    -0.9490 cc         1 95P      -0.008000
      3 C9          -0.6160    -1.6530    -0.3210 c          1 95P       0.684100
      4 C10          3.7140     0.5690     0.3730 cd         1 95P      -0.088900
      5 C2           2.5800    -1.3310    -0.3700 cc         1 95P      -0.503500
      6 C4           3.1720    -0.7050     0.7020 cd         1 95P       0.038000
      7 C14         -4.3120     0.5550    -0.7540 cd         1 95P       0.354900
      8 C13         -4.9480     0.4150     0.4560 cc         1 95P      -0.208900
      9 N11         -1.6630    -1.4210     0.5270 ns         1 95P      -0.481400
     10 N12         -3.0830    -0.0880    -0.8330 nd         1 95P      -0.654000
     11 N6           0.3410    -2.4040     0.2680 ns         1 95P      -0.603300
     12 O15          1.5630    -3.3150    -1.7790 o          1 95P      -0.519000
     13 O16          2.4250    -3.7660     0.6110 o          1 95P      -0.519000
     14 O17         -0.5370    -1.2380    -1.4630 o          1 95P      -0.537100
     15 S1           1.7910    -2.9050    -0.3900 sy         1 95P       1.247300
     16 S3           2.6800    -0.3740    -1.8310 ss         1 95P       0.492000
     17 S8          -4.0210    -0.5450     1.5650 ss         1 95P      -0.042400
     18 Br2         -6.6210     1.1450     0.9290 br         1 95P      -0.007100
     19 Cl18         4.0510     2.3630    -1.7220 cl         1 95P      -0.100000
     20 H1           3.2210    -1.1320     1.7010 ha         1 95P       0.161000
     21 H2          -4.6880     1.1080    -1.6060 h4         1 95P       0.059100
     22 H3          -1.5730    -1.8380     1.4390 hn         1 95P       0.336500
     23 H4           0.2550    -2.7070     1.2210 hn         1 95P       0.345500
     24 Br1          4.5840     1.6690     1.6380 br         1 95P      -0.034100
@<TRIPOS>BOND
     1     1     9 1   
     2     1    10 2   
     3     1    17 1   
     4     2     4 2   
     5     2    16 1   
     6     2    19 1   
     7     3     9 1   
     8     3    11 1   
     9     3    14 2   
    10     4     6 1   
    11     4    24 1   
    12     5     6 2   
    13     5    15 1   
    14     5    16 1   
    15     6    20 1   
    16     7     8 2   
    17     7    10 1   
    18     7    21 1   
    19     8    17 1   
    20     8    18 1   
    21     9    22 1   
    22    11    15 1   
    23    11    23 1   
    24    12    15 2   
    25    13    15 2   
@<TRIPOS>SUBSTRUCTURE
     1 95P         1 TEMP              0 ****  ****    0 ROOT
