@<TRIPOS>MOLECULE
95Q
   56    59     1     0     0
SMALL
No Charge or Current Charge


@<TRIPOS>ATOM
      1 Cl7         -7.0440    -3.3160     0.6450 cl         1 95Q      -0.206000
      2 C2          -5.7430    -2.3290    -0.0110 ca         1 95Q       0.118000
      3 C1          -5.5430    -1.0250     0.4670 ca         1 95Q      -0.102000
      4 C6          -4.5040    -0.2360    -0.0570 ca         1 95Q      -0.099500
      5 C5          -3.6600    -0.7500    -1.0620 ca         1 95Q      -0.079300
      6 C4          -3.8660    -2.0600    -1.5370 ca         1 95Q      -0.099500
      7 C3          -4.9060    -2.8480    -1.0120 ca         1 95Q      -0.102000
      8 C8          -2.5310     0.1060    -1.6220 c3         1 95Q      -0.033100
      9 C9          -1.3170     0.1540    -0.6600 c3         1 95Q       0.177800
     10 N10         -0.0920     0.8340    -1.1910 n3         1 95Q      -0.746600
     11 C23         -0.3470     2.2690    -1.5550 c3         1 95Q       0.225100
     12 C24         -0.6130     3.1990    -0.3630 ca         1 95Q      -0.117300
     13 C25         -1.9240     3.3840     0.1260 ca         1 95Q      -0.105000
     14 C26         -2.1680     4.2410     1.2130 ca         1 95Q      -0.110500
     15 C27         -1.1050     4.9310     1.8180 ca         1 95Q      -0.105000
     16 C28          0.2010     4.7670     1.3300 ca         1 95Q      -0.110500
     17 C29          0.4450     3.9100     0.2430 ca         1 95Q      -0.105000
     18 C11          1.1610     0.6350    -0.3630 c6         1 95Q       0.203500
     19 C12          1.3870    -0.8410     0.0920 c6         1 95Q      -0.088900
     20 C13          2.7000    -1.0190     0.8850 c6         1 95Q       0.213800
     21 N14          3.8630    -0.5210     0.1080 nh         1 95Q      -0.759300
     22 C15          3.7260     0.8900    -0.3250 c6         1 95Q       0.213800
     23 C16          2.4350     1.0840    -1.1460 c6         1 95Q      -0.088900
     24 C17          5.0560    -1.2020     0.0530 cc         1 95Q       0.702400
     25 N18          6.2070    -0.7860    -0.5660 na         1 95Q      -0.249700
     26 N19          7.2040    -1.7130    -0.4220 nc         1 95Q      -0.602800
     27 C20          6.5570    -2.6150     0.2690 cd         1 95Q       0.769900
     28 N21          5.2730    -2.3750     0.5970 nd         1 95Q      -0.798000
     29 N22          7.1380    -3.7250     0.6710 nv         1 95Q      -1.003900
     30 H1          -6.1920    -0.6260     1.2430 ha         1 95Q       0.129000
     31 H2          -4.3530     0.7740     0.3200 ha         1 95Q       0.116500
     32 H3          -3.2200    -2.4710    -2.3100 ha         1 95Q       0.116500
     33 H4          -5.0620    -3.8590    -1.3800 ha         1 95Q       0.129000
     34 H5          -2.1980    -0.2890    -2.5890 hc         1 95Q       0.054200
     35 H6          -2.9120     1.1130    -1.8160 hc         1 95Q       0.054200
     36 H7          -1.6270     0.6110     0.2890 h1         1 95Q       0.039200
     37 H8          -1.1030    -0.9000    -0.4500 h1         1 95Q       0.039200
     38 H10          0.4900     2.6790    -2.1330 h1         1 95Q       0.056700
     39 H11         -1.1970     2.3450    -2.2440 h1         1 95Q       0.056700
     40 H12         -2.7600     2.8660    -0.3350 ha         1 95Q       0.108000
     41 H13         -3.1820     4.3720     1.5840 ha         1 95Q       0.113000
     42 H14         -1.2940     5.5950     2.6590 ha         1 95Q       0.114000
     43 H15          1.0250     5.3060     1.7920 ha         1 95Q       0.113000
     44 H16          1.4610     3.8020    -0.1260 ha         1 95Q       0.108000
     45 H17          1.0890     1.2430     0.5510 h1         1 95Q       0.026700
     46 H18          0.5770    -1.1740     0.7520 hc         1 95Q       0.060700
     47 H19          1.3890    -1.5070    -0.7810 hc         1 95Q       0.060700
     48 H20          2.6270    -0.4690     1.8340 h1         1 95Q       0.047200
     49 H21          2.8080    -2.0830     1.1390 h1         1 95Q       0.047200
     50 H22          3.6980     1.5490     0.5560 h1         1 95Q       0.047200
     51 H23          4.5800     1.2100    -0.9370 h1         1 95Q       0.047200
     52 H24          2.5100     0.5160    -2.0820 hc         1 95Q       0.060700
     53 H25          2.3870     2.1400    -1.4300 hc         1 95Q       0.060700
     54 H26          6.3230     0.0860    -1.0680 hn         1 95Q       0.372000
     55 H27          6.6750    -4.1890     1.4400 hn         1 95Q       0.454500
     56 H28          8.1480    -3.7060     0.6910 hn         1 95Q       0.454500
@<TRIPOS>BOND
     1     1     2 1   
     2     2     3 ar  
     3     2     7 ar  
     4     3     4 ar  
     5     3    30 1   
     6     4     5 ar  
     7     4    31 1   
     8     5     6 ar  
     9     5     8 1   
    10     6     7 ar  
    11     6    32 1   
    12     7    33 1   
    13     8     9 1   
    14     8    34 1   
    15     8    35 1   
    16     9    10 1   
    17     9    36 1   
    18     9    37 1   
    19    10    11 1   
    20    10    18 1   
    21    11    12 1   
    22    11    38 1   
    23    11    39 1   
    24    12    13 ar  
    25    12    17 ar  
    26    13    14 ar  
    27    13    40 1   
    28    14    15 ar  
    29    14    41 1   
    30    15    16 ar  
    31    15    42 1   
    32    16    17 ar  
    33    16    43 1   
    34    17    44 1   
    35    18    19 1   
    36    18    23 1   
    37    18    45 1   
    38    19    20 1   
    39    19    46 1   
    40    19    47 1   
    41    20    21 1   
    42    20    48 1   
    43    20    49 1   
    44    21    22 1   
    45    21    24 1   
    46    22    23 1   
    47    22    50 1   
    48    22    51 1   
    49    23    52 1   
    50    23    53 1   
    51    24    25 1   
    52    24    28 2   
    53    25    26 1   
    54    25    54 1   
    55    26    27 2   
    56    27    28 1   
    57    27    29 1   
    58    29    55 1   
    59    29    56 1   
@<TRIPOS>SUBSTRUCTURE
     1 95Q         1 TEMP              0 ****  ****    0 ROOT
