@<TRIPOS>MOLECULE
95Q
   56    59     1     0     0
SMALL
bcc


@<TRIPOS>ATOM
      1 CL7         -7.0610    -2.3770     1.4300 cl         1 95Q      -0.114400
      2 C2          -5.7160    -1.6980     0.5690 ca         1 95Q       0.026400
      3 C1          -5.5680    -0.3210     0.5100 ca         1 95Q      -0.120000
      4 C6          -4.4920     0.2090    -0.1860 ca         1 95Q      -0.117500
      5 C5          -3.5650    -0.6110    -0.8250 ca         1 95Q      -0.079300
      6 C4          -3.7400    -1.9900    -0.7440 ca         1 95Q      -0.117500
      7 C3          -4.8090    -2.5420    -0.0530 ca         1 95Q      -0.120000
      8 C8          -2.3800    -0.0190    -1.5300 c3         1 95Q      -0.033100
      9 C9          -1.2150     0.1690    -0.5540 c3         1 95Q       0.177800
     10 N10         -0.0350     0.7400    -1.1790 n3         1 95Q      -0.746600
     11 C23         -0.2370     2.1350    -1.5520 c3         1 95Q       0.225100
     12 C24         -0.7220     3.0640    -0.4560 ca         1 95Q      -0.117300
     13 C25         -2.0160     3.5760    -0.5060 ca         1 95Q      -0.123000
     14 C26         -2.5050     4.4080     0.4930 ca         1 95Q      -0.128500
     15 C27         -1.6980     4.7430     1.5710 ca         1 95Q      -0.123000
     16 C28         -0.4030     4.2440     1.6350 ca         1 95Q      -0.128500
     17 C29          0.0780     3.4130     0.6320 ca         1 95Q      -0.123000
     18 C11          1.2020     0.3880    -0.4790 c6         1 95Q       0.203500
     19 C12          1.5190    -1.0960    -0.6830 c6         1 95Q      -0.088900
     20 C13          2.7720    -1.5130     0.0640 c6         1 95Q       0.213800
     21 N14          3.9060    -0.6920    -0.3260 nh         1 95Q      -0.759300
     22 C15          3.6870     0.7410    -0.2480 c6         1 95Q       0.213800
     23 C16          2.4210     1.1570    -0.9810 c6         1 95Q      -0.088900
     24 C17          5.1460    -1.1790    -0.0630 cc         1 95Q       0.702400
     25 N18          6.2660    -0.4490    -0.0200 na         1 95Q      -0.199400
     26 N19          7.3430    -1.2510     0.2270 nc         1 95Q      -0.602800
     27 C20          6.7850    -2.4330     0.3120 cd         1 95Q       0.769900
     28 N21          5.4410    -2.4520     0.1470 nd         1 95Q      -0.798000
     29 N22          7.4980    -3.5910     0.4960 nv         1 95Q      -0.893500
     30 H1          -6.2810     0.3310     0.9950 ha         1 95Q       0.147000
     31 H2          -4.3770     1.2860    -0.2350 ha         1 95Q       0.134500
     32 H3          -3.0330    -2.6500    -1.2320 ha         1 95Q       0.134500
     33 H4          -4.9340    -3.6150    -0.0040 ha         1 95Q       0.147000
     34 H5          -2.0540    -0.6680    -2.3460 hc         1 95Q       0.054200
     35 H6          -2.6710     0.9330    -1.9790 hc         1 95Q       0.054200
     36 H7          -1.5560     0.7610     0.3080 h1         1 95Q       0.039200
     37 H8          -0.9680    -0.8150    -0.1550 h1         1 95Q       0.039200
     38 H10          0.6780     2.5230    -1.9970 h1         1 95Q       0.056700
     39 H11         -0.9720     2.1600    -2.3610 h1         1 95Q       0.056700
     40 H12         -2.6550     3.3250    -1.3460 ha         1 95Q       0.126000
     41 H13         -3.5150     4.7920     0.4270 ha         1 95Q       0.131000
     42 H14         -2.0730     5.3890     2.3540 ha         1 95Q       0.132000
     43 H15          0.2380     4.5060     2.4670 ha         1 95Q       0.131000
     44 H16          1.0940     3.0480     0.7060 ha         1 95Q       0.126000
     45 H17          1.1090     0.5740     0.6070 h1         1 95Q       0.026700
     46 H18          0.7080    -1.7380    -0.3370 hc         1 95Q       0.060700
     47 H19          1.6430    -1.2820    -1.7530 hc         1 95Q       0.060700
     48 H20          2.6010    -1.4390     1.1470 h1         1 95Q       0.047200
     49 H21          3.0000    -2.5540    -0.1550 h1         1 95Q       0.047200
     50 H22          3.6330     1.0710     0.7980 h1         1 95Q       0.047200
     51 H23          4.5230     1.2660    -0.7120 h1         1 95Q       0.047200
     52 H24          2.5430     0.9860    -2.0550 hc         1 95Q       0.060700
     53 H25          2.3220     2.2330    -0.8380 hc         1 95Q       0.060700
     54 H26          6.3920     0.5460    -0.0980 hn         1 95Q       0.321700
     55 H27          6.9770    -4.3150     0.9660 hn         1 95Q       0.399300
     56 H28          8.4010    -3.4550     0.9240 hn         1 95Q       0.399300
@<TRIPOS>BOND
     1     1     2 1   
     2     2     3 ar  
     3     2     7 ar  
     4     3     4 ar  
     5     3    30 1   
     6     4     5 ar  
     7     4    31 1   
     8     5     6 ar  
     9     5     8 1   
    10     6     7 ar  
    11     6    32 1   
    12     7    33 1   
    13     8     9 1   
    14     8    34 1   
    15     8    35 1   
    16     9    10 1   
    17     9    36 1   
    18     9    37 1   
    19    10    11 1   
    20    10    18 1   
    21    11    12 1   
    22    11    38 1   
    23    11    39 1   
    24    12    13 ar  
    25    12    17 ar  
    26    13    14 ar  
    27    13    40 1   
    28    14    15 ar  
    29    14    41 1   
    30    15    16 ar  
    31    15    42 1   
    32    16    17 ar  
    33    16    43 1   
    34    17    44 1   
    35    18    19 1   
    36    18    23 1   
    37    18    45 1   
    38    19    20 1   
    39    19    46 1   
    40    19    47 1   
    41    20    21 1   
    42    20    48 1   
    43    20    49 1   
    44    21    22 1   
    45    21    24 1   
    46    22    23 1   
    47    22    50 1   
    48    22    51 1   
    49    23    52 1   
    50    23    53 1   
    51    24    25 1   
    52    24    28 2   
    53    25    26 1   
    54    25    54 1   
    55    26    27 2   
    56    27    28 1   
    57    27    29 1   
    58    29    55 1   
    59    29    56 1   
@<TRIPOS>SUBSTRUCTURE
     1 95Q         1 TEMP              0 ****  ****    0 ROOT
