@<TRIPOS>MOLECULE
95R
   37    39     1     0     0
SMALL
abcg2


@<TRIPOS>ATOM
      1 N1           1.0640    -8.6200   -18.3050 ns         1 95R      -0.424100
      2 C2           3.7520    -9.5410   -15.1810 c6         1 95R      -0.180400
      3 C4           1.4990    -9.8190   -16.3080 ce         1 95R      -0.293400
      4 C6           3.1970    -8.2050   -17.2160 c6         1 95R      -0.059200
      5 C7           0.1400   -10.4540   -16.3930 c6         1 95R       0.064800
      6 C9          -0.0560    -9.3320   -18.6540 c          1 95R       0.574000
      7 C10         -0.9180    -9.7040   -15.6030 ca         1 95R      -0.102300
      8 C1           3.7630    -8.1560   -15.8070 c6         1 95R      -0.064400
      9 C3           2.3770   -10.1630   -15.1990 c          1 95R       0.590300
     10 C5           1.8880    -8.9270   -17.2480 c2         1 95R       0.108400
     11 O1           2.0240   -10.9480   -14.3310 o          1 95R      -0.530100
     12 C8          -0.2560   -10.5950   -17.8670 c6         1 95R      -0.154400
     13 O2          -0.7690    -8.9690   -19.5650 o          1 95R      -0.525000
     14 C11         -0.7910    -8.3630   -15.2730 ca         1 95R      -0.067000
     15 C12         -1.7820    -7.6810   -14.5740 ca         1 95R      -0.147000
     16 C13         -2.9250    -8.3580   -14.1890 ca         1 95R      -0.070000
     17 C14         -3.0830    -9.7040   -14.5010 ca         1 95R      -0.197000
     18 C15         -2.0890   -10.3740   -15.2080 ca         1 95R       0.148100
     19 O3          -2.1720   -11.6740   -15.5550 os         1 95R      -0.348100
     20 C16         -3.3210   -12.4100   -15.1880 c3         1 95R       0.149900
     21 H1           1.3040    -7.8280   -18.8860 hn         1 95R       0.323500
     22 H2           4.4200   -10.2050   -15.7440 hc         1 95R       0.071200
     23 H3           4.1200    -9.5190   -14.1550 hc         1 95R       0.071200
     24 H5           3.8920    -8.7200   -17.8900 hc         1 95R       0.061200
     25 H6           3.0710    -7.1970   -17.6170 hc         1 95R       0.061200
     26 H7           0.2160   -11.4630   -15.9880 hc         1 95R       0.095700
     27 H8           4.7770    -7.7580   -15.8290 hc         1 95R       0.053200
     28 H9           3.1640    -7.4720   -15.2000 hc         1 95R       0.053200
     29 H11         -1.2860   -10.9250   -17.9850 hc         1 95R       0.081200
     30 H12          0.3810   -11.3560   -18.3330 hc         1 95R       0.081200
     31 H13          0.1080    -7.8310   -15.5580 ha         1 95R       0.111000
     32 H14         -1.6520    -6.6350   -14.3310 ha         1 95R       0.114000
     33 H15         -3.7060    -7.8480   -13.6390 ha         1 95R       0.111000
     34 H16         -3.9820   -10.2140   -14.1820 ha         1 95R       0.116000
     35 H17         -3.1710   -13.4210   -15.5600 h1         1 95R       0.040700
     36 H18         -3.4520   -12.4510   -14.1040 h1         1 95R       0.040700
     37 H19         -4.2290   -12.0010   -15.6380 h1         1 95R       0.040700
@<TRIPOS>BOND
     1     1     6 1   
     2     1    10 1   
     3     1    21 1   
     4     2     8 1   
     5     2     9 1   
     6     2    22 1   
     7     2    23 1   
     8     3     5 1   
     9     3     9 1   
    10     3    10 2   
    11     4     8 1   
    12     4    10 1   
    13     4    24 1   
    14     4    25 1   
    15     5     7 1   
    16     5    12 1   
    17     5    26 1   
    18     6    12 1   
    19     6    13 2   
    20     7    14 ar  
    21     7    18 ar  
    22     8    27 1   
    23     8    28 1   
    24     9    11 2   
    25    12    29 1   
    26    12    30 1   
    27    14    15 ar  
    28    14    31 1   
    29    15    16 ar  
    30    15    32 1   
    31    16    17 ar  
    32    16    33 1   
    33    17    18 ar  
    34    17    34 1   
    35    18    19 1   
    36    19    20 1   
    37    20    35 1   
    38    20    36 1   
    39    20    37 1   
@<TRIPOS>SUBSTRUCTURE
     1 95R         1 TEMP              0 ****  ****    0 ROOT
