@<TRIPOS>MOLECULE
95R
   37    39     1     0     0
SMALL
No Charge or Current Charge


@<TRIPOS>ATOM
      1 N1           1.1580    -8.4710   -18.3170 ns         1 95R      -0.424100
      2 C2           3.7890    -9.8040   -15.2740 c6         1 95R      -0.180400
      3 C4           1.4620    -9.6350   -16.2610 ce         1 95R      -0.293400
      4 C6           3.2860    -8.0800   -17.1080 c6         1 95R      -0.059200
      5 C7           0.1070   -10.3440   -16.4360 c6         1 95R       0.064800
      6 C9           0.0620    -9.1850   -18.7310 c          1 95R       0.574000
      7 C10         -1.0400    -9.6600   -15.6630 ca         1 95R      -0.102300
      8 C1           4.0670    -8.3730   -15.7960 c6         1 95R      -0.064400
      9 C3           2.2850    -9.9670   -15.0620 c          1 95R       0.590300
     10 C5           1.9150    -8.7520   -17.1780 c2         1 95R       0.108400
     11 O1           1.8220   -10.4300   -14.0280 o          1 95R      -0.530100
     12 C8          -0.2440   -10.4620   -17.9410 c6         1 95R      -0.154400
     13 O2          -0.6320    -8.8070   -19.6620 o          1 95R      -0.525000
     14 C11         -1.0270    -8.2630   -15.4470 ca         1 95R      -0.067000
     15 C12         -2.0730    -7.6380   -14.7510 ca         1 95R      -0.147000
     16 C13         -3.1490    -8.3940   -14.2660 ca         1 95R      -0.070000
     17 C14         -3.1820    -9.7810   -14.4810 ca         1 95R      -0.197000
     18 C15         -2.1340   -10.4210   -15.1810 ca         1 95R       0.148100
     19 O3          -2.1520   -11.7840   -15.4190 os         1 95R      -0.348100
     20 C16         -3.2240   -12.6350   -14.9740 c3         1 95R       0.149900
     21 H1           1.3990    -7.6630   -18.8770 hn         1 95R       0.323500
     22 H2           4.0820   -10.4890   -16.0810 hc         1 95R       0.071200
     23 H3           4.3430   -10.0490   -14.3580 hc         1 95R       0.071200
     24 H5           3.8830    -8.4310   -17.9600 hc         1 95R       0.061200
     25 H6           3.1790    -6.9940   -17.2380 hc         1 95R       0.061200
     26 H7           0.2220   -11.3670   -16.0460 hc         1 95R       0.095700
     27 H8           5.1440    -8.2250   -15.9580 hc         1 95R       0.053200
     28 H9           3.7680    -7.6480   -15.0260 hc         1 95R       0.053200
     29 H11         -1.2670   -10.8080   -18.1330 hc         1 95R       0.081200
     30 H12          0.4430   -11.2160   -18.3460 hc         1 95R       0.081200
     31 H13         -0.2100    -7.6500   -15.8170 ha         1 95R       0.111000
     32 H14         -2.0500    -6.5620   -14.5890 ha         1 95R       0.114000
     33 H15         -3.9580    -7.9060   -13.7270 ha         1 95R       0.111000
     34 H16         -4.0310   -10.3400   -14.0990 ha         1 95R       0.116000
     35 H17         -3.0320   -13.6740   -15.2710 h1         1 95R       0.040700
     36 H18         -3.3170   -12.6060   -13.8810 h1         1 95R       0.040700
     37 H19         -4.1780   -12.3250   -15.4190 h1         1 95R       0.040700
@<TRIPOS>BOND
     1     1     6 1   
     2     1    10 1   
     3     1    21 1   
     4     2     8 1   
     5     2     9 1   
     6     2    22 1   
     7     2    23 1   
     8     3     5 1   
     9     3     9 1   
    10     3    10 2   
    11     4     8 1   
    12     4    10 1   
    13     4    24 1   
    14     4    25 1   
    15     5     7 1   
    16     5    12 1   
    17     5    26 1   
    18     6    12 1   
    19     6    13 2   
    20     7    14 ar  
    21     7    18 ar  
    22     8    27 1   
    23     8    28 1   
    24     9    11 2   
    25    12    29 1   
    26    12    30 1   
    27    14    15 ar  
    28    14    31 1   
    29    15    16 ar  
    30    15    32 1   
    31    16    17 ar  
    32    16    33 1   
    33    17    18 ar  
    34    17    34 1   
    35    18    19 1   
    36    19    20 1   
    37    20    35 1   
    38    20    36 1   
    39    20    37 1   
@<TRIPOS>SUBSTRUCTURE
     1 95R         1 TEMP              0 ****  ****    0 ROOT
