@<TRIPOS>MOLECULE
95S
   37    38     1     0     0
SMALL
bcc


@<TRIPOS>ATOM
      1 C7          -0.4380     1.5480     0.3700 c          1 95S       0.818100
      2 C8           3.4040     1.0730    -1.2070 cc         1 95S      -0.009000
      3 C10          3.8030    -1.0360    -0.3510 cd         1 95S      -0.047400
      4 C3          -2.7190     0.8650    -0.1460 cc         1 95S       0.588300
      5 C2           2.8060     1.1670     0.0170 cd         1 95S      -0.362600
      6 C14         -3.9260    -0.9180     0.2510 cd         1 95S       0.419200
      7 C13         -4.9140    -0.1230    -0.2200 cc         1 95S      -0.131300
      8 C12          3.9830    -0.2000    -1.4270 cc         1 95S      -0.127300
      9 C20          4.7290    -0.5600    -2.6730 c3         1 95S      -0.027800
     10 C22          5.7810    -2.4080     0.2630 c3         1 95S       0.137400
     11 C23          7.5640    -3.8120     0.8100 c3         1 95S       0.123700
     12 N11         -2.6850    -0.3500     0.2830 nd         1 95S      -0.655000
     13 N4           0.4600     2.5470     0.0470 ns         1 95S      -0.664300
     14 N9          -1.6490     1.7230    -0.2530 ns         1 95S      -0.552400
     15 O17         -0.1610     0.6440     1.1180 o          1 95S      -0.534100
     16 O21          6.2250    -3.7320     0.3920 os         1 95S      -0.408600
     17 S1           2.0210     2.5750     0.6530 sy         1 95S       1.387900
     18 S5          -4.2890     1.4330    -0.6330 ss         1 95S      -0.187300
     19 S6           2.9330    -0.2810     0.9190 ss         1 95S       0.139200
     20 BR19        -6.7060    -0.5320    -0.4450 br         1 95S      -0.010100
     21 H1           3.4350     1.8780    -1.9280 ha         1 95S       0.161000
     22 H2          -4.0590    -1.9390     0.5790 h4         1 95S       0.058100
     23 H3           3.7250    -2.9700     0.5600 hc         1 95S       0.069700
     24 H4           4.2280    -2.9680    -1.1210 hc         1 95S       0.069700
     25 H5           5.7760    -0.2610    -2.6050 hc         1 95S       0.044700
     26 H6           4.7100    -1.6330    -2.8610 hc         1 95S       0.044700
     27 H7           4.3030    -0.0610    -3.5420 hc         1 95S       0.044700
     28 H8           6.3860    -1.8600    -0.4750 h1         1 95S       0.027200
     29 H9           5.8720    -1.8640     1.2140 h1         1 95S       0.027200
     30 H10          7.8330    -4.8660     0.8780 h1         1 95S       0.030367
     31 H11          8.2470    -3.3260     0.1030 h1         1 95S       0.030367
     32 H12          7.7160    -3.3530     1.7940 h1         1 95S       0.030367
     33 H13          0.2830     3.2000    -0.7070 hn         1 95S       0.341500
     34 H14         -1.7950     2.5710    -0.7800 hn         1 95S       0.336500
     35 C18          4.3210    -2.4260    -0.1760 c3         1 95S      -0.020100
     36 O15          1.9590     2.4400     2.0910 o          1 95S      -0.595300
     37 O16          2.5980     3.7500     0.0340 o          1 95S      -0.595300
@<TRIPOS>BOND
     1     1    13 1   
     2     1    14 1   
     3     1    15 2   
     4     2     5 2   
     5     2     8 1   
     6     2    21 1   
     7     3     8 2   
     8     3    19 1   
     9     3    35 1   
    10     4    12 2   
    11     4    14 1   
    12     4    18 1   
    13     5    17 1   
    14     5    19 1   
    15     6     7 2   
    16     6    12 1   
    17     6    22 1   
    18     7    18 1   
    19     7    20 1   
    20     8     9 1   
    21     9    25 1   
    22     9    26 1   
    23     9    27 1   
    24    10    16 1   
    25    10    28 1   
    26    10    29 1   
    27    10    35 1   
    28    11    16 1   
    29    11    30 1   
    30    11    31 1   
    31    11    32 1   
    32    13    17 1   
    33    13    33 1   
    34    14    34 1   
    35    17    36 2   
    36    17    37 2   
    37    23    35 1   
    38    24    35 1   
@<TRIPOS>SUBSTRUCTURE
     1 95S         1 TEMP              0 ****  ****    0 ROOT
