@<TRIPOS>MOLECULE
95S
   37    38     1     0     0
SMALL
No Charge or Current Charge


@<TRIPOS>ATOM
      1 C7          -0.4110     1.4950     0.4770 c          1 95S       0.684100
      2 C8           3.3350     1.1230    -1.2320 cc         1 95S       0.009000
      3 C10          3.8950    -0.9540    -0.3620 cd         1 95S      -0.192300
      4 C3          -2.7100     0.8230    -0.1550 cc         1 95S       0.588300
      5 C2           2.8390     1.2670     0.0380 cd         1 95S      -0.507500
      6 C14         -4.0700    -0.8150     0.4930 cd         1 95S       0.353900
      7 C13         -4.8770    -0.1990    -0.4340 cc         1 95S      -0.210900
      8 C12          3.9400    -0.1400    -1.4710 cc         1 95S      -0.127300
      9 C20          4.5430    -0.4810    -2.8090 c3         1 95S      -0.027800
     10 C22          5.8780    -2.3910     0.2920 c3         1 95S       0.160600
     11 C23          7.6290    -3.9550     0.8660 c3         1 95S       0.146900
     12 N11         -2.8230    -0.2220     0.6500 nd         1 95S      -0.655000
     13 N4           0.4670     2.4600     0.1260 ns         1 95S      -0.597300
     14 N9          -1.5820     1.6080    -0.2200 ns         1 95S      -0.485400
     15 O17         -0.1730     0.6400     1.3100 o          1 95S      -0.534100
     16 O21          6.2850    -3.7660     0.3920 os         1 95S      -0.455000
     17 S1           2.0190     2.6740     0.7010 sy         1 95S       1.246300
     18 S5          -4.0980     1.1690    -1.1610 ss         1 95S      -0.042400
     19 S6           3.0960    -0.1660     1.0190 ss         1 95S       0.429000
     20 Br19        -6.6250    -0.7190    -0.9110 br         1 95S      -0.010100
     21 H1           3.2790     1.8920    -1.9990 ha         1 95S       0.143000
     22 H2          -4.3300    -1.6880     1.0790 h4         1 95S       0.058100
     23 H3           3.7950    -2.9390     0.4550 hc         1 95S       0.069700
     24 H4           4.3870    -2.8760    -1.1960 hc         1 95S       0.069700
     25 H5           5.5630    -0.8650    -2.6920 hc         1 95S       0.044700
     26 H6           3.9480    -1.2490    -3.3180 hc         1 95S       0.044700
     27 H7           4.5900     0.3960    -3.4650 hc         1 95S       0.044700
     28 H8           6.5270    -1.8420    -0.4030 h1         1 95S       0.027200
     29 H9           5.9240    -1.8990     1.2730 h1         1 95S       0.027200
     30 H10          7.8690    -5.0250     0.9160 h1         1 95S       0.030367
     31 H11          8.3510    -3.4740     0.1930 h1         1 95S       0.030367
     32 H12          7.7520    -3.5290     1.8700 h1         1 95S       0.030367
     33 H13          0.2490     3.1330    -0.5870 hn         1 95S       0.341500
     34 H14         -1.6180     2.3740    -0.8720 hn         1 95S       0.336500
     35 C18          4.4290    -2.3610    -0.2290 c3         1 95S      -0.020100
     36 O15          1.9680     2.5600     2.1610 o          1 95S      -0.524500
     37 O16          2.5200     3.8760     0.0290 o          1 95S      -0.524500
@<TRIPOS>BOND
     1     1    13 1   
     2     1    14 1   
     3     1    15 2   
     4     2     5 2   
     5     2     8 1   
     6     2    21 1   
     7     3     8 2   
     8     3    19 1   
     9     3    35 1   
    10     4    12 2   
    11     4    14 1   
    12     4    18 1   
    13     5    17 1   
    14     5    19 1   
    15     6     7 2   
    16     6    12 1   
    17     6    22 1   
    18     7    18 1   
    19     7    20 1   
    20     8     9 1   
    21     9    25 1   
    22     9    26 1   
    23     9    27 1   
    24    10    16 1   
    25    10    28 1   
    26    10    29 1   
    27    10    35 1   
    28    11    16 1   
    29    11    30 1   
    30    11    31 1   
    31    11    32 1   
    32    13    17 1   
    33    13    33 1   
    34    14    34 1   
    35    17    36 2   
    36    17    37 2   
    37    23    35 1   
    38    24    35 1   
@<TRIPOS>SUBSTRUCTURE
     1 95S         1 TEMP              0 ****  ****    0 ROOT
