@<TRIPOS>MOLECULE
95T
   41    43     1     0     0
SMALL
bcc


@<TRIPOS>ATOM
      1 C10        135.3170   136.3820   129.7930 ca         1 95T      -0.126500
      2 C13        138.1570   132.9610   127.8940 c          1 95T       0.619600
      3 C15        138.3850   135.8130   126.5700 ca         1 95T      -0.239000
      4 C17        140.1430   137.2900   128.1480 ca         1 95T       0.188600
      5 C20        134.1020   136.6480   130.4280 ca         1 95T      -0.095500
      6 C21        135.9040   138.7170   130.0090 ca         1 95T      -0.126000
      7 C22        133.7840   137.9280   130.8440 ca         1 95T      -0.126000
      8 C24        137.4750   139.1570   125.5030 c3         1 95T       0.124200
      9 O02        136.8580   134.8050   128.8790 os         1 95T      -0.300800
     10 O03        137.5390   137.7500   125.6090 os         1 95T      -0.313900
     11 O04        140.9610   138.0850   128.8570 os         1 95T      -0.313900
     12 O05        138.2350   131.7500   127.7550 o          1 95T      -0.582100
     13 N06        139.2000   133.7790   127.6050 ns         1 95T      -0.494100
     14 C07        135.6130   135.0410   129.3210 cc         1 95T       0.322200
     15 C08        139.2160   135.1870   127.4770 ca         1 95T       0.132600
     16 C09        136.9150   133.5360   128.4290 cc         1 95T       0.168200
     17 C11        134.8550   133.9120   129.1750 cd         1 95T      -0.270300
     18 C12        135.7040   132.9360   128.6010 cd         1 95T      -0.188300
     19 C14        140.1110   135.9070   128.2670 ca         1 95T      -0.239000
     20 C16        138.4030   137.2080   126.4840 ca         1 95T       0.188600
     21 C18        139.2790   137.9480   127.2670 ca         1 95T      -0.270000
     22 C19        136.2150   137.4330   129.5960 ca         1 95T      -0.095500
     23 C23        134.6880   138.9580   130.6280 ca         1 95T       0.035400
     24 C25        141.8660   137.4910   129.7670 c3         1 95T       0.124200
     25 H1         137.7130   135.2410   125.9430 ha         1 95T       0.153000
     26 H2         133.3910   135.8520   130.6050 ha         1 95T       0.147500
     27 H3         136.6070   139.5220   129.8410 ha         1 95T       0.149500
     28 H4         132.8380   138.1180   131.3340 ha         1 95T       0.149500
     29 H5         136.7070   139.3760   124.7640 h1         1 95T       0.043867
     30 H6         137.1940   139.6240   126.4510 h1         1 95T       0.043867
     31 H7         138.4210   139.5870   125.1650 h1         1 95T       0.043867
     32 H8         140.0660   133.2960   127.4030 hn         1 95T       0.331500
     33 H9         133.8140   133.7950   129.4290 ha         1 95T       0.164000
     34 H10        135.4470   131.9240   128.3370 ha         1 95T       0.176000
     35 H11        140.7420   135.3750   128.9650 ha         1 95T       0.153000
     36 H12        139.3200   139.0280   127.2150 ha         1 95T       0.152000
     37 H13        137.1650   137.2670   129.1050 ha         1 95T       0.147500
     38 H14        142.4260   138.3050   130.2210 h1         1 95T       0.043867
     39 H15        141.3490   136.9370   130.5550 h1         1 95T       0.043867
     40 H16        142.5660   136.8180   129.2650 h1         1 95T       0.043867
     41 CL1        134.2880   140.5640   131.1330 cl         1 95T      -0.106400
@<TRIPOS>BOND
     1     1     5 ar  
     2     1    14 1   
     3     1    22 ar  
     4     2    12 2   
     5     2    13 1   
     6     2    16 1   
     7     3    15 ar  
     8     3    20 ar  
     9     3    25 1   
    10     4    11 1   
    11     4    19 ar  
    12     4    21 ar  
    13     5     7 ar  
    14     5    26 1   
    15     6    22 ar  
    16     6    23 ar  
    17     6    27 1   
    18     7    23 ar  
    19     7    28 1   
    20     8    10 1   
    21     8    29 1   
    22     8    30 1   
    23     8    31 1   
    24     9    14 1   
    25     9    16 1   
    26    10    20 1   
    27    11    24 1   
    28    13    15 1   
    29    13    32 1   
    30    14    17 2   
    31    15    19 ar  
    32    16    18 2   
    33    17    18 1   
    34    17    33 1   
    35    18    34 1   
    36    19    35 1   
    37    20    21 ar  
    38    21    36 1   
    39    22    37 1   
    40    23    41 1   
    41    24    38 1   
    42    24    39 1   
    43    24    40 1   
@<TRIPOS>SUBSTRUCTURE
     1 95T         1 TEMP              0 ****  ****    0 ROOT
