@<TRIPOS>MOLECULE
95T
   41    43     1     0     0
SMALL
No Charge or Current Charge


@<TRIPOS>ATOM
      1 C10        134.9710   136.4000   129.7720 ca         1 95T      -0.126500
      2 C13        138.1140   132.9490   127.9880 c          1 95T       0.552600
      3 C15        138.4200   135.8800   126.7770 ca         1 95T      -0.221000
      4 C17        140.5520   137.2280   128.0050 ca         1 95T       0.188600
      5 C20        133.7210   136.5270   130.4180 ca         1 95T      -0.077500
      6 C21        135.2690   138.8240   129.9420 ca         1 95T      -0.108000
      7 C22        133.2520   137.7910   130.8190 ca         1 95T      -0.108000
      8 C24        137.6130   139.3440   125.6750 c3         1 95T       0.147400
      9 O02        136.7700   134.9240   128.8960 os         1 95T      -0.212000
     10 O03        137.6030   137.9170   125.8570 os         1 95T      -0.337100
     11 O04        141.5840   137.9410   128.5790 os         1 95T      -0.337100
     12 O05        138.1920   131.7390   127.7980 o          1 95T      -0.582100
     13 N06        139.2140   133.7610   127.7380 ns         1 95T      -0.168000
     14 C07        135.4840   135.0950   129.3390 cc         1 95T       0.212500
     15 C08        139.3310   135.1610   127.5720 ca         1 95T       0.040000
     16 C09        136.8760   133.5990   128.5230 cc         1 95T       0.058500
     17 C11        134.7850   133.9200   129.2830 cd         1 95T      -0.187000
     18 C12        135.6840   132.9580   128.7690 cd         1 95T      -0.105000
     19 C14        140.4120   135.8330   128.1630 ca         1 95T      -0.221000
     20 C16        138.5480   137.2670   126.6210 ca         1 95T       0.188600
     21 C18        139.6170   137.9410   127.2420 ca         1 95T      -0.252000
     22 C19        135.7410   137.5620   129.5400 ca         1 95T      -0.077500
     23 C23        134.0260   138.9370   130.5800 ca         1 95T       0.127000
     24 C25        142.5960   137.3120   129.3860 c3         1 95T       0.147400
     25 H1         137.5980   135.3680   126.2850 ha         1 95T       0.135000
     26 H2         133.1060   135.6530   130.6190 ha         1 95T       0.129500
     27 H3         135.8680   139.7120   129.7580 ha         1 95T       0.131500
     28 H4         132.2900   137.8820   131.3160 ha         1 95T       0.131500
     29 H5         136.7700   139.6520   125.0440 h1         1 95T       0.043867
     30 H6         137.5210   139.8600   126.6400 h1         1 95T       0.043867
     31 H7         138.5400   139.6690   125.1870 h1         1 95T       0.043867
     32 H8         140.0620   133.2520   127.5250 hn         1 95T       0.165000
     33 H9         133.7510   133.7550   129.5630 ha         1 95T       0.146000
     34 H10        135.4740   131.9080   128.5880 ha         1 95T       0.158000
     35 H11        141.1220   135.2620   128.7530 ha         1 95T       0.135000
     36 H12        139.7450   139.0130   127.1400 ha         1 95T       0.134000
     37 H13        136.7070   137.4930   129.0440 ha         1 95T       0.129500
     38 H14        143.3170   138.0590   129.7410 h1         1 95T       0.043867
     39 H15        142.1500   136.8260   130.2630 h1         1 95T       0.043867
     40 H16        143.1460   136.5590   128.8060 h1         1 95T       0.043867
     41 Cl1        133.4360   140.5160   131.0830 cl         1 95T      -0.198000
@<TRIPOS>BOND
     1     1     5 ar  
     2     1    14 1   
     3     1    22 ar  
     4     2    12 2   
     5     2    13 1   
     6     2    16 1   
     7     3    15 ar  
     8     3    20 ar  
     9     3    25 1   
    10     4    11 1   
    11     4    19 ar  
    12     4    21 ar  
    13     5     7 ar  
    14     5    26 1   
    15     6    22 ar  
    16     6    23 ar  
    17     6    27 1   
    18     7    23 ar  
    19     7    28 1   
    20     8    10 1   
    21     8    29 1   
    22     8    30 1   
    23     8    31 1   
    24     9    14 1   
    25     9    16 1   
    26    10    20 1   
    27    11    24 1   
    28    13    15 1   
    29    13    32 1   
    30    14    17 2   
    31    15    19 ar  
    32    16    18 2   
    33    17    18 1   
    34    17    33 1   
    35    18    34 1   
    36    19    35 1   
    37    20    21 ar  
    38    21    36 1   
    39    22    37 1   
    40    23    41 1   
    41    24    38 1   
    42    24    39 1   
    43    24    40 1   
@<TRIPOS>SUBSTRUCTURE
     1 95T         1 TEMP              0 ****  ****    0 ROOT
