@<TRIPOS>MOLECULE
95U
   36    38     1     0     0
SMALL
No Charge or Current Charge


@<TRIPOS>ATOM
      1 O21          3.6910     1.7830    -0.5030 o          1 95U      -0.577100
      2 C18          4.3670     0.7670    -0.3940 c          1 95U       0.607300
      3 C19          5.8540     0.7880    -0.5570 ce         1 95U      -0.306200
      4 C20          6.5770     1.8930    -0.8710 c2         1 95U      -0.225000
      5 N17          3.8540    -0.4960    -0.1310 ns         1 95U      -0.144000
      6 C15          2.5310    -0.9650     0.1000 ca         1 95U      -0.021000
      7 C16          1.4080    -0.1150     0.2210 ca         1 95U      -0.108000
      8 C11          0.1150    -0.6430     0.4340 ca         1 95U      -0.064900
      9 C12         -0.0330    -2.0370     0.5890 ca         1 95U      -0.125000
     10 C13          1.0770    -2.8880     0.4770 ca         1 95U      -0.087000
     11 C14          2.3500    -2.3540     0.2280 ca         1 95U      -0.165000
     12 C7          -1.0330     0.2610     0.6030 cc         1 95U       0.397500
     13 N8          -0.9410     1.4630     1.1990 nd         1 95U      -0.501100
     14 N9          -2.2550     1.9480     1.1560 na         1 95U      -0.054400
     15 C5          -3.1120     1.0730     0.5240 ca         1 95U      -0.039200
     16 C6          -2.3810    -0.0090     0.1450 ca         1 95U      -0.217900
     17 C4          -4.4770     1.1950     0.2360 ca         1 95U      -0.133000
     18 C3          -5.0950     0.1480    -0.4850 ca         1 95U      -0.038300
     19 C10         -6.5760     0.2240    -0.8230 c3         1 95U      -0.050800
     20 C2          -4.3270    -0.9700    -0.9010 ca         1 95U      -0.150000
     21 C1          -2.9500    -1.0560    -0.5980 ca         1 95U      -0.034000
     22 H1           6.3580    -0.1690    -0.4170 ha         1 95U       0.176000
     23 H2           6.1090     2.8670    -1.0240 ha         1 95U       0.178000
     24 H3           7.6620     1.8560    -0.9840 ha         1 95U       0.178000
     25 H4           4.5540    -1.2250    -0.0950 hn         1 95U       0.149000
     26 H5           1.5170     0.9620     0.1440 ha         1 95U       0.160000
     27 H6          -1.0050    -2.4660     0.8190 ha         1 95U       0.118000
     28 H7           0.9510    -3.9630     0.5940 ha         1 95U       0.112000
     29 H8           3.2020    -3.0250     0.1450 ha         1 95U       0.108000
     30 H10         -5.0390     2.0720     0.5500 ha         1 95U       0.118000
     31 H11         -6.7890    -0.2520    -1.7880 hc         1 95U       0.043700
     32 H12         -7.1770    -0.2830    -0.0590 hc         1 95U       0.043700
     33 H13         -6.9200     1.2630    -0.8860 hc         1 95U       0.043700
     34 H14         -4.7980    -1.7690    -1.4680 ha         1 95U       0.112000
     35 H15         -2.3610    -1.9010    -0.9440 ha         1 95U       0.119000
     36 H16         -2.5020     2.8570     1.5450 hn         1 95U       0.378000
@<TRIPOS>BOND
     1     1     2 2   
     2     2     3 1   
     3     2     5 1   
     4     3     4 2   
     5     3    22 1   
     6     4    23 1   
     7     4    24 1   
     8     5     6 1   
     9     5    25 1   
    10     6     7 ar  
    11     6    11 ar  
    12     7     8 ar  
    13     7    26 1   
    14     8     9 ar  
    15     8    12 1   
    16     9    10 ar  
    17     9    27 1   
    18    10    11 ar  
    19    10    28 1   
    20    11    29 1   
    21    12    13 2   
    22    12    16 1   
    23    13    14 1   
    24    14    15 1   
    25    14    36 1   
    26    15    16 ar  
    27    15    17 ar  
    28    16    21 ar  
    29    17    18 ar  
    30    17    30 1   
    31    18    19 1   
    32    18    20 ar  
    33    19    31 1   
    34    19    32 1   
    35    19    33 1   
    36    20    21 ar  
    37    20    34 1   
    38    21    35 1   
@<TRIPOS>SUBSTRUCTURE
     1 95U         1 TEMP              0 ****  ****    0 ROOT
