@<TRIPOS>MOLECULE
95V
   36    38     1     0     0
SMALL
abcg2


@<TRIPOS>ATOM
      1 C5          -3.1970     0.8480    -1.1620 cc         1 95V       0.544300
      2 C7          -1.3270     2.0420    -0.2360 c          1 95V       0.683100
      3 C10          1.8570     2.1320     0.4820 ca         1 95V      -0.301500
      4 C3          -4.8830    -0.3690    -1.8520 cd         1 95V       0.347900
      5 C2          -4.5900    -1.0510    -0.7210 cc         1 95V      -0.251900
      6 C15          2.6870     2.0180    -0.6260 ca         1 95V      -0.006000
      7 C16          3.5520     0.9440    -0.7130 ca         1 95V      -0.114500
      8 C17          3.6030    -0.0180     0.2990 ca         1 95V      -0.048500
      9 C18          2.7660     0.1280     1.4070 ca         1 95V      -0.114500
     10 C19          1.8910     1.1940     1.5040 ca         1 95V      -0.006000
     11 C20          4.5250    -1.1530     0.1870 cc         1 95V       0.325500
     12 C22          6.1330    -2.2700    -0.8370 cd         1 95V       0.445700
     13 C24          4.6120    -2.2050     1.0510 cd         1 95V      -0.249000
     14 C25          7.1940    -2.5990    -1.8270 c3         1 95V      -0.130400
     15 N21          5.3920    -1.2130    -0.8710 nc         1 95V      -0.642000
     16 N4          -4.0830     0.7100    -2.0920 nd         1 95V      -0.709000
     17 N6          -2.2780     1.8670    -1.1950 ns         1 95V      -0.472400
     18 N8          -0.4960     3.1100    -0.4580 ns         1 95V      -0.581300
     19 O11         -1.2260     1.3080     0.7260 o          1 95V      -0.589100
     20 O13          0.2450     3.6080     1.9280 o          1 95V      -0.519500
     21 O14          1.3720     4.6550    -0.0600 o          1 95V      -0.519500
     22 S1          -3.2500    -0.3310     0.1060 ss         1 95V       0.114600
     23 S23          5.8140    -3.2950     0.5230 ss         1 95V      -0.019400
     24 S9           0.7630     3.5070     0.5820 sy         1 95V       1.197300
     25 BR12        -5.4310    -2.5580    -0.0460 br         1 95V      -0.021100
     26 H1          -5.6740    -0.6170    -2.5450 h4         1 95V       0.052100
     27 H2           2.6690     2.7510    -1.4210 ha         1 95V       0.139000
     28 H3           4.1980     0.8540    -1.5750 ha         1 95V       0.131000
     29 H4           2.7890    -0.5920     2.2140 ha         1 95V       0.131000
     30 H5           1.2530     1.2850     2.3710 ha         1 95V       0.139000
     31 H6           4.0400    -2.3960     1.9450 h4         1 95V       0.166000
     32 H7           8.1770    -2.3200    -1.4440 hc         1 95V       0.061033
     33 H8           7.2180    -3.6630    -2.0550 hc         1 95V       0.061033
     34 H9           7.0180    -2.0480    -2.7480 hc         1 95V       0.061033
     35 H10         -2.3510     2.4950    -1.9840 hn         1 95V       0.347500
     36 H11         -0.5420     3.6510    -1.3130 hn         1 95V       0.348500
@<TRIPOS>BOND
     1     1    16 2   
     2     1    17 1   
     3     1    22 1   
     4     2    17 1   
     5     2    18 1   
     6     2    19 2   
     7     3     6 ar  
     8     3    10 ar  
     9     3    24 1   
    10     4     5 2   
    11     4    16 1   
    12     4    26 1   
    13     5    22 1   
    14     5    25 1   
    15     6     7 ar  
    16     6    27 1   
    17     7     8 ar  
    18     7    28 1   
    19     8     9 ar  
    20     8    11 1   
    21     9    10 ar  
    22     9    29 1   
    23    10    30 1   
    24    11    13 2   
    25    11    15 1   
    26    12    14 1   
    27    12    15 2   
    28    12    23 1   
    29    13    23 1   
    30    13    31 1   
    31    14    32 1   
    32    14    33 1   
    33    14    34 1   
    34    17    35 1   
    35    18    24 1   
    36    18    36 1   
    37    20    24 2   
    38    21    24 2   
@<TRIPOS>SUBSTRUCTURE
     1 95V         1 TEMP              0 ****  ****    0 ROOT
