@<TRIPOS>MOLECULE
95V
   36    38     1     0     0
SMALL
No Charge or Current Charge


@<TRIPOS>ATOM
      1 C5          -3.4150     0.8550    -0.9410 cc         1 95V       0.544300
      2 C7          -1.4050     1.9520    -0.0480 c          1 95V       0.683100
      3 C10          1.9120     2.1100     0.3370 ca         1 95V      -0.301500
      4 C3          -5.2320    -0.0990    -1.7880 cd         1 95V       0.347900
      5 C2          -5.0260    -0.9230    -0.7070 cc         1 95V      -0.251900
      6 C15          2.7390     1.9790    -0.7960 ca         1 95V      -0.006000
      7 C16          3.6300     0.8970    -0.8960 ca         1 95V      -0.114500
      8 C17          3.7020    -0.0850     0.1170 ca         1 95V      -0.048500
      9 C18          2.8820     0.0700     1.2590 ca         1 95V      -0.114500
     10 C19          1.9900     1.1500     1.3660 ca         1 95V      -0.006000
     11 C20          4.6690    -1.1920     0.0070 cc         1 95V       0.325500
     12 C22          6.4370    -2.2780    -0.7100 cd         1 95V       0.445700
     13 C24          4.4640    -2.3620     0.6990 cd         1 95V      -0.249000
     14 C25          7.7000    -2.5110    -1.4870 c3         1 95V      -0.130400
     15 N21          5.7750    -1.1340    -0.8030 nc         1 95V      -0.642000
     16 N4          -4.3000     0.9250    -1.9200 nd         1 95V      -0.709000
     17 N6          -2.4260     1.8010    -0.9360 ns         1 95V      -0.472400
     18 N8          -0.6060     2.9950    -0.3570 ns         1 95V      -0.581300
     19 O11         -1.2280     1.2290     0.9130 o          1 95V      -0.589100
     20 O13          0.3710     3.6610     1.8670 o          1 95V      -0.519500
     21 O14          1.2850     4.6170    -0.3240 o          1 95V      -0.519500
     22 S1          -3.6330    -0.4490     0.2150 ss         1 95V       0.114600
     23 S23          5.7540    -3.5020     0.3580 ss         1 95V      -0.019400
     24 S9           0.7620     3.4950     0.4630 sy         1 95V       1.197300
     25 Br12        -6.0840    -2.4060    -0.2190 br         1 95V      -0.021100
     26 H1          -6.0350    -0.1920    -2.5100 h4         1 95V       0.052100
     27 H2           2.6990     2.7120    -1.6010 ha         1 95V       0.139000
     28 H3           4.2620     0.8190    -1.7780 ha         1 95V       0.131000
     29 H4           2.9330    -0.6400     2.0800 ha         1 95V       0.131000
     30 H5           1.3620     1.2350     2.2530 ha         1 95V       0.139000
     31 H6           3.6500    -2.6310     1.3590 h4         1 95V       0.166000
     32 H7           8.4560    -1.7590    -1.2340 hc         1 95V       0.061033
     33 H8           8.1210    -3.4990    -1.2690 hc         1 95V       0.061033
     34 H9           7.5100    -2.4550    -2.5640 hc         1 95V       0.061033
     35 H10         -2.4630     2.4700    -1.6870 hn         1 95V       0.347500
     36 H11         -0.7710     3.5550    -1.1740 hn         1 95V       0.348500
@<TRIPOS>BOND
     1     1    16 2   
     2     1    17 1   
     3     1    22 1   
     4     2    17 1   
     5     2    18 1   
     6     2    19 2   
     7     3     6 ar  
     8     3    10 ar  
     9     3    24 1   
    10     4     5 2   
    11     4    16 1   
    12     4    26 1   
    13     5    22 1   
    14     5    25 1   
    15     6     7 ar  
    16     6    27 1   
    17     7     8 ar  
    18     7    28 1   
    19     8     9 ar  
    20     8    11 1   
    21     9    10 ar  
    22     9    29 1   
    23    10    30 1   
    24    11    13 2   
    25    11    15 1   
    26    12    14 1   
    27    12    15 2   
    28    12    23 1   
    29    13    23 1   
    30    13    31 1   
    31    14    32 1   
    32    14    33 1   
    33    14    34 1   
    34    17    35 1   
    35    18    24 1   
    36    18    36 1   
    37    20    24 2   
    38    21    24 2   
@<TRIPOS>SUBSTRUCTURE
     1 95V         1 TEMP              0 ****  ****    0 ROOT
