@<TRIPOS>MOLECULE
95W
   53    56     1     0     0
SMALL
No Charge or Current Charge


@<TRIPOS>ATOM
      1 O2          -7.0910    -2.1800    -0.5150 o          1 95W      -0.530000
      2 C21         -6.1260    -1.4890    -0.2310 c          1 95W       0.587200
      3 C1          -6.1920    -0.0670     0.1720 cc         1 95W      -0.267400
      4 C           -7.5730     0.5450     0.2250 c3         1 95W      -0.018900
      5 N3          -4.8690    -1.9970    -0.2660 ns         1 95W      -0.469500
      6 C20         -3.6960    -1.3740     0.0170 c          1 95W       0.615000
      7 O1          -2.6470    -1.9900    -0.0670 o          1 95W      -0.556000
      8 N           -3.7870    -0.0130     0.4000 n          1 95W      -0.305000
      9 C2          -5.0330     0.6170     0.4710 cd         1 95W      -0.008400
     10 C3          -2.5690     0.7840     0.7370 c6         1 95W       0.127700
     11 C19         -1.8230     0.2870     1.9960 c6         1 95W      -0.091900
     12 C18         -0.6380     1.2250     2.3220 c6         1 95W       0.171300
     13 N1           0.2810     1.3750     1.1590 n3         1 95W      -0.702600
     14 C5          -0.4270     1.9020    -0.0430 c6         1 95W       0.171300
     15 C4          -1.6060     0.9920    -0.4550 c6         1 95W      -0.091900
     16 C6           1.5060     2.1580     1.5110 c3         1 95W       0.125500
     17 C7           2.6050     2.2250     0.4320 ca         1 95W       0.379300
     18 N2           3.4860     1.1960     0.3790 nb         1 95W      -0.710000
     19 C11          4.4470     1.2250    -0.5710 ca         1 95W       0.581300
     20 C10          4.5850     2.2900    -1.4740 ca         1 95W      -0.177000
     21 C9           3.6860     3.3640    -1.4190 ca         1 95W      -0.052000
     22 C8           2.6770     3.3240    -0.4460 ca         1 95W      -0.199000
     23 O            5.3610     0.2000    -0.6420 os         1 95W      -0.373400
     24 C12          5.0380    -1.1160    -0.3940 ca         1 95W       0.114100
     25 C17          3.8220    -1.6700    -0.8440 ca         1 95W      -0.111500
     26 C16          3.5330    -3.0250    -0.5990 ca         1 95W      -0.096500
     27 C15          4.4620    -3.8290     0.0850 ca         1 95W      -0.113000
     28 C14          5.6820    -3.2820     0.5200 ca         1 95W      -0.096500
     29 C13          5.9710    -1.9270     0.2750 ca         1 95W      -0.111500
     30 H1          -8.0610     0.5040    -0.7560 hc         1 95W       0.046700
     31 H2          -8.2110     0.0150     0.9430 hc         1 95W       0.046700
     32 H3          -7.5320     1.5970     0.5310 hc         1 95W       0.046700
     33 H           -4.7940    -2.9630    -0.5370 hn         1 95W       0.342500
     34 H4          -5.0060     1.6610     0.7730 h4         1 95W       0.201000
     35 H5          -2.9160     1.7950     0.9970 h1         1 95W       0.044700
     36 H22         -2.5100     0.2460     2.8510 hc         1 95W       0.069950
     37 H23         -1.4400    -0.7300     1.8460 hc         1 95W       0.069950
     38 H21         -1.0290     2.2080     2.6240 h1         1 95W       0.032950
     39 H20         -0.0950     0.8140     3.1860 h1         1 95W       0.032950
     40 H9          -0.8060     2.9160     0.1550 h1         1 95W       0.032950
     41 H8           0.2620     1.9750    -0.8970 h1         1 95W       0.032950
     42 H7          -1.2080     0.0310    -0.8050 hc         1 95W       0.069950
     43 H6          -2.1430     1.4400    -1.3010 hc         1 95W       0.069950
     44 H11          1.2210     3.1870     1.7710 h1         1 95W       0.044700
     45 H10          1.9610     1.7310     2.4150 h1         1 95W       0.044700
     46 H14          5.3850     2.2730    -2.2080 ha         1 95W       0.140000
     47 H13          3.7670     4.2020    -2.1100 ha         1 95W       0.121000
     48 H12          1.9560     4.1330    -0.3690 ha         1 95W       0.124000
     49 H19          3.1030    -1.0570    -1.3820 ha         1 95W       0.120500
     50 H18          2.5920    -3.4510    -0.9410 ha         1 95W       0.118500
     51 H17          4.2380    -4.8770     0.2730 ha         1 95W       0.115000
     52 H16          6.4030    -3.9060     1.0430 ha         1 95W       0.118500
     53 H15          6.9150    -1.5040     0.6070 ha         1 95W       0.120500
@<TRIPOS>BOND
     1     1     2 2   
     2     2     3 1   
     3     2     5 1   
     4     3     4 1   
     5     3     9 2   
     6     4    30 1   
     7     4    31 1   
     8     4    32 1   
     9     5     6 1   
    10     5    33 1   
    11     6     7 2   
    12     6     8 1   
    13     8     9 1   
    14     8    10 1   
    15     9    34 1   
    16    10    11 1   
    17    10    15 1   
    18    10    35 1   
    19    11    12 1   
    20    11    36 1   
    21    11    37 1   
    22    12    13 1   
    23    12    38 1   
    24    12    39 1   
    25    13    14 1   
    26    13    16 1   
    27    14    15 1   
    28    14    40 1   
    29    14    41 1   
    30    15    42 1   
    31    15    43 1   
    32    16    17 1   
    33    16    44 1   
    34    16    45 1   
    35    17    18 ar  
    36    17    22 ar  
    37    18    19 ar  
    38    19    20 ar  
    39    19    23 1   
    40    20    21 ar  
    41    20    46 1   
    42    21    22 ar  
    43    21    47 1   
    44    22    48 1   
    45    23    24 1   
    46    24    25 ar  
    47    24    29 ar  
    48    25    26 ar  
    49    25    49 1   
    50    26    27 ar  
    51    26    50 1   
    52    27    28 ar  
    53    27    51 1   
    54    28    29 ar  
    55    28    52 1   
    56    29    53 1   
@<TRIPOS>SUBSTRUCTURE
     1 95W         1 TEMP              0 ****  ****    0 ROOT
