@<TRIPOS>MOLECULE
95W
   53    56     1     0     0
SMALL
bcc


@<TRIPOS>ATOM
      1 O2          -6.2030    -2.8100    -0.5250 o          1 95W      -0.605500
      2 C21         -5.3340    -2.0030    -0.2420 c          1 95W       0.729700
      3 C1          -5.5570    -0.6040     0.0490 cc         1 95W      -0.267400
      4 C           -6.9520    -0.0720     0.0270 c3         1 95W      -0.018900
      5 N3          -4.0080    -2.3880    -0.1820 ns         1 95W      -0.603500
      6 C20         -2.9090    -1.6140     0.0970 c          1 95W       0.824500
      7 O1          -1.7900    -2.0880     0.1220 o          1 95W      -0.631500
      8 N           -3.1890    -0.2910     0.3420 n          1 95W      -0.372000
      9 C2          -4.4820     0.1590     0.3200 cd         1 95W       0.041600
     10 C3          -2.1130     0.6620     0.6600 c6         1 95W       0.127700
     11 C19         -1.4480     0.4030     2.0060 c6         1 95W      -0.091900
     12 C18         -0.4490     1.5180     2.2910 c6         1 95W       0.171300
     13 N1           0.5340     1.6180     1.2300 n3         1 95W      -0.702600
     14 C5          -0.1000     1.9190    -0.0400 c6         1 95W       0.171300
     15 C4          -1.0600     0.8050    -0.4310 c6         1 95W      -0.091900
     16 C6           1.5910     2.5460     1.5700 c3         1 95W       0.125500
     17 C7           2.6930     2.5320     0.5450 ca         1 95W       0.444600
     18 N2           3.2000     1.3360     0.2390 nb         1 95W      -0.710000
     19 C11          4.1140     1.2590    -0.6940 ca         1 95W       0.646600
     20 C10          4.6430     2.3610    -1.3670 ca         1 95W      -0.260300
     21 C9           4.1440     3.5990    -1.0200 ca         1 95W      -0.070000
     22 C8           3.1400     3.6940    -0.0580 ca         1 95W      -0.282300
     23 O            4.5980     0.0410    -1.0350 os         1 95W      -0.373400
     24 C12          3.9270    -1.0850    -0.6190 ca         1 95W       0.114100
     25 C17          2.6280    -1.3400    -1.0400 ca         1 95W      -0.129500
     26 C16          2.0070    -2.5150    -0.6490 ca         1 95W      -0.114500
     27 C15          2.6770    -3.4340     0.1510 ca         1 95W      -0.131000
     28 C14          3.9770    -3.1710     0.5580 ca         1 95W      -0.114500
     29 C13          4.6050    -1.9900     0.1810 ca         1 95W      -0.129500
     30 H1          -7.4170    -0.2180    -0.9490 hc         1 95W       0.046700
     31 H2          -7.5830    -0.5740     0.7630 hc         1 95W       0.046700
     32 H3          -6.9660     0.9940     0.2480 hc         1 95W       0.046700
     33 H           -3.8080    -3.3620    -0.3710 hn         1 95W       0.342500
     34 H4          -4.5980     1.2120     0.5370 h4         1 95W       0.151000
     35 H5          -2.6220     1.6270     0.7300 h1         1 95W       0.044700
     36 H22         -2.1960     0.3700     2.8010 hc         1 95W       0.069950
     37 H23         -0.9260    -0.5540     1.9930 hc         1 95W       0.069950
     38 H21         -0.9930     2.4690     2.4300 h1         1 95W       0.032950
     39 H20          0.0640     1.3080     3.2320 h1         1 95W       0.032950
     40 H9          -0.6360     2.8860    -0.0060 h1         1 95W       0.032950
     41 H8           0.6600     2.0100    -0.8170 h1         1 95W       0.032950
     42 H7          -0.4920    -0.1170    -0.5430 hc         1 95W       0.069950
     43 H6          -1.5290     1.0410    -1.3890 hc         1 95W       0.069950
     44 H11          1.2300     3.5800     1.6990 h1         1 95W       0.044700
     45 H10          2.0060     2.2400     2.5360 h1         1 95W       0.044700
     46 H14          5.4040     2.2430    -2.1260 ha         1 95W       0.158000
     47 H13          4.5140     4.4880    -1.5130 ha         1 95W       0.139000
     48 H12          2.7090     4.6500     0.2040 ha         1 95W       0.142000
     49 H19          2.1020    -0.6260    -1.6610 ha         1 95W       0.138500
     50 H18          0.9920    -2.7120    -0.9700 ha         1 95W       0.136500
     51 H17          2.1890    -4.3530     0.4500 ha         1 95W       0.133000
     52 H16          4.5070    -3.8810     1.1780 ha         1 95W       0.136500
     53 H15          5.6170    -1.7760     0.5010 ha         1 95W       0.138500
@<TRIPOS>BOND
     1     1     2 2   
     2     2     3 1   
     3     2     5 1   
     4     3     4 1   
     5     3     9 2   
     6     4    30 1   
     7     4    31 1   
     8     4    32 1   
     9     5     6 1   
    10     5    33 1   
    11     6     7 2   
    12     6     8 1   
    13     8     9 1   
    14     8    10 1   
    15     9    34 1   
    16    10    11 1   
    17    10    15 1   
    18    10    35 1   
    19    11    12 1   
    20    11    36 1   
    21    11    37 1   
    22    12    13 1   
    23    12    38 1   
    24    12    39 1   
    25    13    14 1   
    26    13    16 1   
    27    14    15 1   
    28    14    40 1   
    29    14    41 1   
    30    15    42 1   
    31    15    43 1   
    32    16    17 1   
    33    16    44 1   
    34    16    45 1   
    35    17    18 ar  
    36    17    22 ar  
    37    18    19 ar  
    38    19    20 ar  
    39    19    23 1   
    40    20    21 ar  
    41    20    46 1   
    42    21    22 ar  
    43    21    47 1   
    44    22    48 1   
    45    23    24 1   
    46    24    25 ar  
    47    24    29 ar  
    48    25    26 ar  
    49    25    49 1   
    50    26    27 ar  
    51    26    50 1   
    52    27    28 ar  
    53    27    51 1   
    54    28    29 ar  
    55    28    52 1   
    56    29    53 1   
@<TRIPOS>SUBSTRUCTURE
     1 95W         1 TEMP              0 ****  ****    0 ROOT
