@<TRIPOS>MOLECULE
95X
   44    46     1     0     0
SMALL
No Charge or Current Charge


@<TRIPOS>ATOM
      1 C12        -26.9310     4.2590   -38.4020 c3         1 95X       0.225600
      2 C11        -26.8520     3.3240   -33.5890 ca         1 95X      -0.068000
      3 C10        -27.2500     3.0290   -34.9000 ca         1 95X      -0.145000
      4 C02        -24.4380     6.1410   -34.1490 ca         1 95X      -0.098300
      5 C03        -24.1020     6.4460   -32.7980 ca         1 95X       0.017200
      6 C04        -24.6630     5.6830   -31.7550 ca         1 95X      -0.102000
      7 C05        -25.5600     4.6440   -32.0240 ca         1 95X      -0.113000
      8 C06        -25.9290     4.3570   -33.3450 ca         1 95X      -0.077000
      9 C07        -25.3800     5.1020   -34.4160 ca         1 95X       0.011000
     10 C08        -25.7980     4.7910   -35.7340 ca         1 95X      -0.192000
     11 C09        -26.7370     3.7650   -35.9750 ca         1 95X       0.120100
     12 C13        -27.4590     3.4960   -39.6330 c3         1 95X      -0.085100
     13 C14        -27.5700     5.6580   -38.2510 ca         1 95X      -0.068300
     14 C15        -28.9120     5.8310   -37.8040 ca         1 95X       0.130000
     15 C16        -29.4580     7.1190   -37.6570 ca         1 95X      -0.082000
     16 C17        -28.6940     8.2550   -37.9540 ca         1 95X      -0.135000
     17 C18        -27.3800     8.1050   -38.4110 ca         1 95X       0.183000
     18 C19        -26.8150     6.8220   -38.5670 ca         1 95X       0.076000
     19 C21        -22.4190     7.7130   -31.3220 ce         1 95X      -0.217200
     20 C22        -21.5530     8.8910   -30.9990 c          1 95X       0.697200
     21 F01        -26.6570     9.2100   -38.7050 f          1 95X      -0.155000
     22 O01        -27.1860     3.4420   -37.2410 os         1 95X      -0.344100
     23 O02        -21.5180     9.8320   -31.7770 o          1 95X      -0.721500
     24 O03        -20.9150     8.8540   -29.9580 o          1 95X      -0.721500
     25 Cl01       -25.1550     6.7170   -39.1770 cl         1 95X      -0.164000
     26 Cl02       -29.9840     4.4780   -37.4220 cl         1 95X      -0.178000
     27 H01        -25.8470     4.3410   -38.5310 h1         1 95X       0.063700
     28 H09        -27.2670     2.7520   -32.7620 ha         1 95X       0.105000
     29 H08        -27.9700     2.2350   -35.0830 ha         1 95X       0.114000
     30 H02        -24.4570     7.6470   -35.7350 hc         1 95X       0.039700
     31 H04        -22.8510     7.4120   -35.0250 hc         1 95X       0.039700
     32 H03        -23.4720     6.2220   -36.1160 hc         1 95X       0.039700
     33 H05        -24.4230     5.9080   -30.7200 ha         1 95X       0.121000
     34 H06        -25.9830     4.0750   -31.1980 ha         1 95X       0.100000
     35 H07        -25.4040     5.3490   -36.5700 ha         1 95X       0.117000
     36 H12        -26.9630     2.5220   -39.7200 hc         1 95X       0.048700
     37 H11        -28.5390     3.3280   -39.5720 hc         1 95X       0.048700
     38 H10        -27.2520     4.0650   -40.5470 hc         1 95X       0.048700
     39 H13        -30.4830     7.2330   -37.3130 ha         1 95X       0.133000
     40 H14        -29.1190     9.2490   -37.8390 ha         1 95X       0.139000
     41 H15        -23.2020     8.3990   -33.1420 ha         1 95X       0.197000
     42 H16        -22.3910     6.9170   -30.5830 ha         1 95X       0.143000
     43 C01        -23.7750     6.9010   -35.3110 c3         1 95X      -0.041800
     44 C20        -23.2000     7.5650   -32.4380 cf         1 95X      -0.248200
@<TRIPOS>BOND
     1     1    12 1   
     2     1    13 1   
     3     1    22 1   
     4     1    27 1   
     5     2     3 ar  
     6     2     8 ar  
     7     2    28 1   
     8     3    11 ar  
     9     3    29 1   
    10     4     5 ar  
    11     4     9 ar  
    12     4    43 1   
    13     5     6 ar  
    14     5    44 1   
    15     6     7 ar  
    16     6    33 1   
    17     7     8 ar  
    18     7    34 1   
    19     8     9 ar  
    20     9    10 ar  
    21    10    11 ar  
    22    10    35 1   
    23    11    22 1   
    24    12    36 1   
    25    12    37 1   
    26    12    38 1   
    27    13    14 ar  
    28    13    18 ar  
    29    14    15 ar  
    30    14    26 1   
    31    15    16 ar  
    32    15    39 1   
    33    16    17 ar  
    34    16    40 1   
    35    17    18 ar  
    36    17    21 1   
    37    18    25 1   
    38    19    20 1   
    39    19    42 1   
    40    19    44 2   
    41    20    23 1   
    42    20    24 1   
    43    30    43 1   
    44    31    43 1   
    45    32    43 1   
    46    41    44 1   
@<TRIPOS>SUBSTRUCTURE
     1 95X         1 TEMP              0 ****  ****    0 ROOT
