@<TRIPOS>MOLECULE
95X
   44    46     1     0     0
SMALL
bcc


@<TRIPOS>ATOM
      1 C12        -26.8960     4.2630   -38.2990 c3         1 95X       0.202400
      2 C11        -26.8420     3.2960   -33.6120 ca         1 95X      -0.086000
      3 C10        -27.2440     3.0340   -34.8890 ca         1 95X      -0.163000
      4 C02        -24.5450     6.2150   -34.1220 ca         1 95X      -0.098300
      5 C03        -24.1480     6.4630   -32.8160 ca         1 95X       0.017200
      6 C04        -24.6600     5.6510   -31.7660 ca         1 95X      -0.120000
      7 C05        -25.5260     4.6290   -32.0070 ca         1 95X      -0.131000
      8 C06        -25.9410     4.3460   -33.3260 ca         1 95X      -0.077000
      9 C07        -25.4470     5.1400   -34.3890 ca         1 95X       0.011000
     10 C08        -25.8650     4.8400   -35.7100 ca         1 95X      -0.210000
     11 C09        -26.7440     3.8150   -35.9560 ca         1 95X       0.120100
     12 C13        -27.3700     3.5310   -39.5420 c3         1 95X      -0.085100
     13 C14        -27.5190     5.6470   -38.1970 ca         1 95X      -0.068300
     14 C15        -28.8290     5.8670   -37.7680 ca         1 95X       0.038400
     15 C16        -29.3700     7.1410   -37.6760 ca         1 95X      -0.100000
     16 C17        -28.6160     8.2460   -38.0250 ca         1 95X      -0.153000
     17 C18        -27.3290     8.0500   -38.4710 ca         1 95X       0.147900
     18 C19        -26.7860     6.7780   -38.5630 ca         1 95X      -0.015600
     19 C21        -22.4300     7.5990   -31.4000 ce         1 95X      -0.167200
     20 C22        -21.5020     8.7630   -31.1120 c          1 95X       0.907800
     21 F01        -26.5810     9.0950   -38.8180 f          1 95X      -0.119900
     22 O01        -27.1960     3.4580   -37.1770 os         1 95X      -0.320900
     23 O02        -21.4720     9.6950   -31.9390 o          1 95X      -0.826800
     24 O03        -20.8460     8.6700   -30.0540 o          1 95X      -0.826800
     25 CL01       -25.1640     6.6690   -39.1420 cl         1 95X      -0.072400
     26 CL02       -29.8730     4.5540   -37.3360 cl         1 95X      -0.086400
     27 H01        -25.8110     4.3750   -38.3730 h1         1 95X       0.063700
     28 H09        -27.2200     2.6940   -32.7940 ha         1 95X       0.123000
     29 H08        -27.9390     2.2310   -35.1000 ha         1 95X       0.132000
     30 H02        -24.8810     7.4690   -35.8410 hc         1 95X       0.039700
     31 H04        -23.3860     7.8310   -35.0020 hc         1 95X       0.039700
     32 H03        -23.5020     6.3970   -35.9960 hc         1 95X       0.039700
     33 H05        -24.3710     5.8690   -30.7460 ha         1 95X       0.139000
     34 H06        -25.9120     4.0320   -31.1900 ha         1 95X       0.118000
     35 H07        -25.4660     5.4280   -36.5210 ha         1 95X       0.135000
     36 H12        -26.8880     2.5570   -39.6120 hc         1 95X       0.048700
     37 H11        -28.4500     3.3890   -39.5490 hc         1 95X       0.048700
     38 H10        -27.0960     4.1060   -40.4260 hc         1 95X       0.048700
     39 H13        -30.3870     7.2720   -37.3350 ha         1 95X       0.151000
     40 H14        -29.0270     9.2440   -37.9560 ha         1 95X       0.157000
     41 H15        -23.1490     8.3820   -33.1630 ha         1 95X       0.147000
     42 H16        -22.4190     6.7850   -30.6800 ha         1 95X       0.093000
     43 C01        -24.0510     7.0230   -35.2900 c3         1 95X      -0.041800
     44 C20        -23.2150     7.5440   -32.4790 cf         1 95X      -0.198200
@<TRIPOS>BOND
     1     1    12 1   
     2     1    13 1   
     3     1    22 1   
     4     1    27 1   
     5     2     3 ar  
     6     2     8 ar  
     7     2    28 1   
     8     3    11 ar  
     9     3    29 1   
    10     4     5 ar  
    11     4     9 ar  
    12     4    43 1   
    13     5     6 ar  
    14     5    44 1   
    15     6     7 ar  
    16     6    33 1   
    17     7     8 ar  
    18     7    34 1   
    19     8     9 ar  
    20     9    10 ar  
    21    10    11 ar  
    22    10    35 1   
    23    11    22 1   
    24    12    36 1   
    25    12    37 1   
    26    12    38 1   
    27    13    14 ar  
    28    13    18 ar  
    29    14    15 ar  
    30    14    26 1   
    31    15    16 ar  
    32    15    39 1   
    33    16    17 ar  
    34    16    40 1   
    35    17    18 ar  
    36    17    21 1   
    37    18    25 1   
    38    19    20 1   
    39    19    42 1   
    40    19    44 2   
    41    20    23 1   
    42    20    24 1   
    43    30    43 1   
    44    31    43 1   
    45    32    43 1   
    46    41    44 1   
@<TRIPOS>SUBSTRUCTURE
     1 95X         1 TEMP              0 ****  ****    0 ROOT
