@<TRIPOS>MOLECULE
95Y
   53    55     1     0     0
SMALL
No Charge or Current Charge


@<TRIPOS>ATOM
      1 C5           2.8170     1.0000     0.4720 ca         1 95Y       0.664900
      2 C7          -0.0470    -2.1680     0.8180 c          1 95Y       0.689100
      3 C8           2.2390    -1.2270     0.4620 ca         1 95Y       0.548900
      4 C9          -3.4780    -1.9200    -1.4270 cc         1 95Y       0.010000
      5 C10         -4.2470     0.1000    -0.5820 cd         1 95Y      -0.199300
      6 C2          -3.1780    -2.1000    -0.1020 cd         1 95Y      -0.501500
      7 C15          3.5700    -1.6390     0.5750 ca         1 95Y      -0.249000
      8 C14          4.1790     0.6830     0.6200 ca         1 95Y      -0.240000
      9 C12         -4.0890    -0.6700    -1.7130 cc         1 95Y      -0.126300
     10 C18          4.5620    -0.6610     0.6680 ca         1 95Y       0.082100
     11 C23          1.1470     2.6810    -0.4470 c6         1 95Y       0.177300
     12 C24          3.2410     3.4900     0.7120 c6         1 95Y       0.177300
     13 C25         -4.4890    -0.2930    -3.1160 c3         1 95Y      -0.027800
     14 C27          2.4600     4.7850     1.0810 c6         1 95Y       0.142100
     15 C28          0.4710     4.0160    -0.0200 c6         1 95Y       0.142100
     16 C29         -6.3560     1.4480    -0.1900 c3         1 95Y       0.160600
     17 C30         -8.2300     2.9340     0.1630 c3         1 95Y       0.146900
     18 N11          1.2130    -2.1550     0.2820 ns         1 95Y      -0.335900
     19 N13          2.3400     2.3280     0.4060 nh         1 95Y      -0.767300
     20 N3          -0.7910    -3.1800     0.3200 ns         1 95Y      -0.598300
     21 N6           1.8650     0.0590     0.3800 nb         1 95Y      -0.769000
     22 O19         -0.4470    -1.3780     1.6560 o          1 95Y      -0.557100
     23 O20          1.4470     5.0760     0.0930 os         1 95Y      -0.443000
     24 O26         -6.8240     2.8050    -0.1060 os         1 95Y      -0.456000
     25 S1          -2.3990    -3.4980     0.6260 sy         1 95Y       1.242300
     26 S4          -3.6420    -0.7180     0.8770 ss         1 95Y       0.416000
     27 Br22         6.4020    -1.1480     0.8400 br         1 95Y      -0.085100
     28 H1          -3.2720    -2.6540    -2.2040 ha         1 95Y       0.149000
     29 H2           3.8200    -2.6950     0.5940 ha         1 95Y       0.140000
     30 H3           4.9340     1.4570     0.6770 ha         1 95Y       0.141000
     31 H4          -4.3430     2.0530     0.3080 hc         1 95Y       0.067200
     32 H5          -4.6760     2.0370    -1.4160 hc         1 95Y       0.067200
     33 H6           0.3740     1.9010    -0.4050 h1         1 95Y       0.061700
     34 H7           1.4580     2.7670    -1.4990 h1         1 95Y       0.061700
     35 H8           3.8870     3.7010    -0.1530 h1         1 95Y       0.061700
     36 H9           3.8980     3.2520     1.5620 h1         1 95Y       0.061700
     37 H10         -3.8480     0.5080    -3.5010 hc         1 95Y       0.044367
     38 H11         -4.4090    -1.1460    -3.8010 hc         1 95Y       0.044367
     39 H12         -5.5270     0.0600    -3.1450 hc         1 95Y       0.044367
     40 H13          1.9810     4.6640     2.0630 h1         1 95Y       0.056450
     41 H14          3.1550     5.6340     1.1460 h1         1 95Y       0.056450
     42 H15         -0.2890     4.3020    -0.7600 h1         1 95Y       0.056450
     43 H16         -0.0320     3.8840     0.9490 h1         1 95Y       0.056450
     44 H17         -6.8730     0.9080    -0.9950 h1         1 95Y       0.027700
     45 H18         -6.5330     0.9170     0.7550 h1         1 95Y       0.027700
     46 H19         -8.8240     2.4580    -0.6280 h1         1 95Y       0.030700
     47 H20         -8.4880     2.4660     1.1220 h1         1 95Y       0.030700
     48 H21         -8.5130     3.9930     0.2130 h1         1 95Y       0.030700
     49 H22          1.4410    -2.9150    -0.3410 hn         1 95Y       0.166000
     50 H23         -0.4250    -3.7810    -0.3950 hn         1 95Y       0.341500
     51 C21         -4.8450     1.4840    -0.4840 c3         1 95Y      -0.020100
     52 O16         -2.5870    -3.4560     2.0790 o          1 95Y      -0.525500
     53 O17         -2.7170    -4.6880    -0.1680 o          1 95Y      -0.525500
@<TRIPOS>BOND
     1     1     8 ar  
     2     1    19 1   
     3     1    21 ar  
     4     2    18 1   
     5     2    20 1   
     6     2    22 2   
     7     3     7 ar  
     8     3    18 1   
     9     3    21 ar  
    10     4     6 2   
    11     4     9 1   
    12     4    28 1   
    13     5     9 2   
    14     5    26 1   
    15     5    51 1   
    16     6    25 1   
    17     6    26 1   
    18     7    10 ar  
    19     7    29 1   
    20     8    10 ar  
    21     8    30 1   
    22     9    13 1   
    23    10    27 1   
    24    11    15 1   
    25    11    19 1   
    26    11    33 1   
    27    11    34 1   
    28    12    14 1   
    29    12    19 1   
    30    12    35 1   
    31    12    36 1   
    32    13    37 1   
    33    13    38 1   
    34    13    39 1   
    35    14    23 1   
    36    14    40 1   
    37    14    41 1   
    38    15    23 1   
    39    15    42 1   
    40    15    43 1   
    41    16    24 1   
    42    16    44 1   
    43    16    45 1   
    44    16    51 1   
    45    17    24 1   
    46    17    46 1   
    47    17    47 1   
    48    17    48 1   
    49    18    49 1   
    50    20    25 1   
    51    20    50 1   
    52    25    52 2   
    53    25    53 2   
    54    31    51 1   
    55    32    51 1   
@<TRIPOS>SUBSTRUCTURE
     1 95Y         1 TEMP              0 ****  ****    0 ROOT
