@<TRIPOS>MOLECULE
95Y
   53    55     1     0     0
SMALL
bcc


@<TRIPOS>ATOM
      1 C5           2.7680     1.1090     0.5490 ca         1 95Y       0.730200
      2 C7           0.0320    -2.0460     0.6950 c          1 95Y       0.823100
      3 C8           2.3060    -1.1340     0.4660 ca         1 95Y       0.614200
      4 C9          -3.7550    -2.1650    -1.4970 cc         1 95Y      -0.008000
      5 C10         -4.1510     0.0680    -1.0620 cd         1 95Y      -0.054400
      6 C2          -3.1120    -2.0140    -0.3010 cd         1 95Y      -0.356600
      7 C15          3.6470    -1.5090     0.5230 ca         1 95Y      -0.332300
      8 C14          4.1560     0.8580     0.5810 ca         1 95Y      -0.323300
      9 C12         -4.3570    -0.9640    -1.9440 cc         1 95Y      -0.126300
     10 C18          4.5530    -0.4620     0.5670 ca         1 95Y       0.082100
     11 C23          0.8460     2.5860     0.2910 c6         1 95Y       0.177300
     12 C24          3.0770     3.5460     0.4380 c6         1 95Y       0.177300
     13 C25         -5.1250    -0.8390    -3.2240 c3         1 95Y      -0.027800
     14 C27          2.4480     4.7390     1.1350 c6         1 95Y       0.118900
     15 C28          0.3320     3.8210     1.0030 c6         1 95Y       0.118900
     16 C29         -5.9940     1.6150    -0.4290 c3         1 95Y       0.137400
     17 C30         -7.6460     3.1770     0.1050 c3         1 95Y       0.123700
     18 N11          1.3510    -2.1420     0.3540 ns         1 95Y      -0.569400
     19 N13          2.2490     2.3680     0.6130 nh         1 95Y      -0.767300
     20 N3          -0.6940    -3.1490     0.2670 ns         1 95Y      -0.665300
     21 N6           1.8890     0.1120     0.4630 nb         1 95Y      -0.769000
     22 O19         -0.4870    -1.1430     1.3060 o          1 95Y      -0.557100
     23 O20          1.1200     4.9560     0.7240 os         1 95Y      -0.396600
     24 O26         -6.4340     2.9390    -0.5660 os         1 95Y      -0.409600
     25 S1          -2.3310    -3.2950     0.5740 sy         1 95Y       1.383900
     26 S4          -3.2270    -0.4120     0.2990 ss         1 95Y       0.126200
     27 BR22         6.3940    -0.8610     0.6160 br         1 95Y      -0.085100
     28 H1          -3.8100    -3.1000    -2.0370 ha         1 95Y       0.167000
     29 H2           3.9500    -2.5460     0.5290 ha         1 95Y       0.158000
     30 H3           4.8860     1.6500     0.6070 ha         1 95Y       0.159000
     31 H4          -3.9420     2.1750    -0.7590 hc         1 95Y       0.067200
     32 H5          -4.8020     1.7170    -2.2200 hc         1 95Y       0.067200
     33 H6           0.2620     1.7230     0.6000 h1         1 95Y       0.061700
     34 H7           0.7200     2.7000    -0.7940 h1         1 95Y       0.061700
     35 H8           3.2230     3.7600    -0.6290 h1         1 95Y       0.061700
     36 H9           4.0610     3.3980     0.8780 h1         1 95Y       0.061700
     37 H10         -4.6050    -0.2030    -3.9420 hc         1 95Y       0.044367
     38 H11         -5.2630    -1.8130    -3.6890 hc         1 95Y       0.044367
     39 H12         -6.1130    -0.4070    -3.0620 hc         1 95Y       0.044367
     40 H13          2.4950     4.5860     2.2220 h1         1 95Y       0.056450
     41 H14          3.0200     5.6370     0.8970 h1         1 95Y       0.056450
     42 H15         -0.6850     4.0340     0.6700 h1         1 95Y       0.056450
     43 H16          0.3000     3.6330     2.0860 h1         1 95Y       0.056450
     44 H17         -6.7290     0.9090    -0.8410 h1         1 95Y       0.027700
     45 H18         -5.8610     1.3510     0.6300 h1         1 95Y       0.027700
     46 H19         -8.4640     2.5630    -0.2910 h1         1 95Y       0.030700
     47 H20         -7.5660     2.9770     1.1800 h1         1 95Y       0.030700
     48 H21         -7.9060     4.2260    -0.0320 h1         1 95Y       0.030700
     49 H22          1.6980    -3.0490     0.0780 hn         1 95Y       0.332500
     50 H23         -0.3420    -3.7470    -0.4720 hn         1 95Y       0.341500
     51 C21         -4.6670     1.4660    -1.1650 c3         1 95Y      -0.020100
     52 O16         -2.5430    -3.0870     1.9880 o          1 95Y      -0.596300
     53 O17         -2.6900    -4.5500    -0.0560 o          1 95Y      -0.596300
@<TRIPOS>BOND
     1     1     8 ar  
     2     1    19 1   
     3     1    21 ar  
     4     2    18 1   
     5     2    20 1   
     6     2    22 2   
     7     3     7 ar  
     8     3    18 1   
     9     3    21 ar  
    10     4     6 2   
    11     4     9 1   
    12     4    28 1   
    13     5     9 2   
    14     5    26 1   
    15     5    51 1   
    16     6    25 1   
    17     6    26 1   
    18     7    10 ar  
    19     7    29 1   
    20     8    10 ar  
    21     8    30 1   
    22     9    13 1   
    23    10    27 1   
    24    11    15 1   
    25    11    19 1   
    26    11    33 1   
    27    11    34 1   
    28    12    14 1   
    29    12    19 1   
    30    12    35 1   
    31    12    36 1   
    32    13    37 1   
    33    13    38 1   
    34    13    39 1   
    35    14    23 1   
    36    14    40 1   
    37    14    41 1   
    38    15    23 1   
    39    15    42 1   
    40    15    43 1   
    41    16    24 1   
    42    16    44 1   
    43    16    45 1   
    44    16    51 1   
    45    17    24 1   
    46    17    46 1   
    47    17    47 1   
    48    17    48 1   
    49    18    49 1   
    50    20    25 1   
    51    20    50 1   
    52    25    52 2   
    53    25    53 2   
    54    31    51 1   
    55    32    51 1   
@<TRIPOS>SUBSTRUCTURE
     1 95Y         1 TEMP              0 ****  ****    0 ROOT
