@<TRIPOS>MOLECULE
95Z
   25    25     1     0     0
SMALL
bcc


@<TRIPOS>ATOM
      1 C1           0.3960     1.6820    -0.0680 c6         1 95Z       0.305900
      2 O1           0.3040     1.9890    -1.4230 oh         1 95Z      -0.609800
      3 C2           1.6080     0.7710     0.1490 c6         1 95Z       0.098500
      4 N2           1.9820     0.6380     1.5460 n8         1 95Z      -0.884800
      5 C3           1.3350    -0.6020    -0.4780 c6         1 95Z       0.167100
      6 O3           2.3680    -1.5230    -0.2310 oh         1 95Z      -0.578800
      7 C4           0.0310    -1.1830     0.0490 c6         1 95Z       0.117100
      8 O4          -0.2210    -2.3800    -0.6530 oh         1 95Z      -0.574800
      9 C5          -1.1020    -0.1670    -0.1600 c6         1 95Z       0.109100
     10 O5          -0.7690     1.0770     0.4320 os         1 95Z      -0.428600
     11 C6          -2.4010    -0.6300     0.4640 c3         1 95Z       0.146400
     12 O6          -3.4190     0.2830     0.1330 oh         1 95Z      -0.585800
     13 H1           0.5150     2.5910     0.5360 h2         1 95Z       0.058700
     14 H2          -0.3420     2.6940    -1.5450 ho         1 95Z       0.424000
     15 H3           2.4610     1.2210    -0.3690 h1         1 95Z       0.079700
     16 H4           2.2870     1.5340     1.9020 hn         1 95Z       0.349800
     17 H5           1.1830     0.3710     2.1090 hn         1 95Z       0.349800
     18 H7           1.2150    -0.4500    -1.5620 h1         1 95Z       0.067700
     19 H8           3.1840    -1.0370    -0.0780 ho         1 95Z       0.415000
     20 H9           0.1380    -1.3810     1.1260 h1         1 95Z       0.045700
     21 H10         -0.7700    -2.9540    -0.1110 ho         1 95Z       0.402000
     22 H11         -1.2590    -0.0500    -1.2410 h1         1 95Z       0.075700
     23 H12         -2.6290    -1.6320     0.0820 h1         1 95Z       0.023700
     24 H13         -2.2700    -0.7210     1.5510 h1         1 95Z       0.023700
     25 H14         -4.2400    -0.0310     0.5230 ho         1 95Z       0.404000
@<TRIPOS>BOND
     1     1     2 1   
     2     1     3 1   
     3     1    10 1   
     4     1    13 1   
     5     2    14 1   
     6     3     4 1   
     7     3     5 1   
     8     3    15 1   
     9     4    16 1   
    10     4    17 1   
    11     5     6 1   
    12     5     7 1   
    13     5    18 1   
    14     6    19 1   
    15     7     8 1   
    16     7     9 1   
    17     7    20 1   
    18     8    21 1   
    19     9    10 1   
    20     9    11 1   
    21     9    22 1   
    22    11    12 1   
    23    11    23 1   
    24    11    24 1   
    25    12    25 1   
@<TRIPOS>SUBSTRUCTURE
     1 95Z         1 TEMP              0 ****  ****    0 ROOT
