@<TRIPOS>MOLECULE
95Z
   25    25     1     0     0
SMALL
No Charge or Current Charge


@<TRIPOS>ATOM
      1 C1           0.4510     1.7100    -0.0990 c6         1 95Z       0.352300
      2 O1           0.2320     2.0320    -1.4670 oh         1 95Z      -0.672000
      3 C2           1.6580     0.7160     0.0790 c6         1 95Z       0.098500
      4 N2           2.1520     0.5740     1.5000 n8         1 95Z      -0.995200
      5 C3           1.3050    -0.6880    -0.4970 c6         1 95Z       0.190300
      6 O3           2.3480    -1.5800    -0.0850 oh         1 95Z      -0.641000
      7 C4          -0.0670    -1.2010     0.0460 c6         1 95Z       0.140300
      8 O4          -0.3980    -2.4690    -0.5570 oh         1 95Z      -0.697000
      9 C5          -1.1700    -0.1290    -0.2010 c6         1 95Z       0.132300
     10 O5          -0.7690     1.1360     0.4050 os         1 95Z      -0.475000
     11 C6          -2.5520    -0.5480     0.4030 c3         1 95Z       0.169600
     12 O6          -3.5750     0.4530     0.2340 oh         1 95Z      -0.708000
     13 H1           0.6680     2.6360     0.4560 h2         1 95Z       0.058700
     14 H2          -0.6020     2.5490    -1.4710 ho         1 95Z       0.463000
     15 H3           2.5020     1.1070    -0.5110 h1         1 95Z       0.079700
     16 H4           2.6160     1.4470     1.7850 hn         1 95Z       0.405000
     17 H5           1.3370     0.5360     2.1280 hn         1 95Z       0.405000
     18 H7           1.2530    -0.6210    -1.5940 h1         1 95Z       0.067700
     19 H8           2.6930    -1.1080     0.7150 ho         1 95Z       0.454000
     20 H9           0.0260    -1.3340     1.1340 h1         1 95Z       0.045700
     21 H10          0.4360    -2.9960    -0.5370 ho         1 95Z       0.501000
     22 H11         -1.3060     0.0080    -1.2830 h1         1 95Z       0.075700
     23 H12         -2.8690    -1.4850    -0.0750 h1         1 95Z       0.023700
     24 H13         -2.4090    -0.7610     1.4710 h1         1 95Z       0.023700
     25 H14         -4.3760     0.1260     0.7060 ho         1 95Z       0.503000
@<TRIPOS>BOND
     1     1     2 1   
     2     1     3 1   
     3     1    10 1   
     4     1    13 1   
     5     2    14 1   
     6     3     4 1   
     7     3     5 1   
     8     3    15 1   
     9     4    16 1   
    10     4    17 1   
    11     5     6 1   
    12     5     7 1   
    13     5    18 1   
    14     6    19 1   
    15     7     8 1   
    16     7     9 1   
    17     7    20 1   
    18     8    21 1   
    19     9    10 1   
    20     9    11 1   
    21     9    22 1   
    22    11    12 1   
    23    11    23 1   
    24    11    24 1   
    25    12    25 1   
@<TRIPOS>SUBSTRUCTURE
     1 95Z         1 TEMP              0 ****  ****    0 ROOT
