@<TRIPOS>MOLECULE
960
   39    43     1     0     0
SMALL
abcg2


@<TRIPOS>ATOM
      1 C10        -18.0460   -23.1340   -52.6080 cc         1 960      -0.175000
      2 N12        -23.7850   -23.2700   -54.4740 na         1 960       0.294900
      3 C13        -25.1320   -23.3870   -54.1570 cc         1 960      -0.080000
      4 C15        -24.9880   -23.5170   -56.2960 cd         1 960       0.102600
      5 C17        -23.1270   -23.1200   -52.3600 cd         1 960       0.411000
      6 C20        -17.9530   -21.7550   -52.7560 cd         1 960      -0.133000
      7 C24        -16.8020   -19.9160   -51.5020 c3         1 960       0.070900
      8 C01        -18.7860   -24.0710   -53.4460 ca         1 960       0.008000
      9 C02        -18.6270   -25.4710   -53.2630 ca         1 960       0.316900
     10 C04        -20.1410   -25.9560   -54.8670 ca         1 960       0.196700
     11 C05        -20.3530   -24.5930   -55.1340 ca         1 960      -0.033200
     12 C06        -19.6710   -23.6190   -54.4210 ca         1 960      -0.076000
     13 C07        -21.0260   -26.6620   -55.7430 cc         1 960       0.306200
     14 C11        -23.6870   -23.3510   -55.8440 cc         1 960      -0.377200
     15 C18        -24.4590   -23.2180   -51.8840 cd         1 960      -0.138000
     16 C19        -25.4690   -23.3520   -52.7940 cc         1 960      -0.017000
     17 C23        -17.2790   -23.4000   -51.4480 cc         1 960       0.262900
     18 N03        -19.2770   -26.4010   -53.9430 nb         1 960      -0.603000
     19 N08        -21.7220   -25.8370   -56.4820 nd         1 960      -0.489100
     20 N09        -21.3020   -24.5610   -56.1470 na         1 960      -0.063600
     21 N14        -25.8620   -23.5310   -55.2670 nd         1 960      -0.273600
     22 N16        -22.7730   -23.1380   -53.6110 nc         1 960      -0.460800
     23 N21        -17.1880   -21.2940   -51.7510 na         1 960       0.122800
     24 N22        -16.7660   -22.2860   -50.9370 nd         1 960      -0.521800
     25 O27        -22.5190   -23.5220   -58.0900 o          1 960      -0.520000
     26 O28        -21.4480   -22.1050   -56.3380 o          1 960      -0.520000
     27 S26        -22.2010   -23.2630   -56.7190 sy         1 960       1.292300
     28 H1         -25.2990   -23.6210   -57.3230 h4         1 960       0.257000
     29 H2         -18.3660   -21.0880   -53.4960 h4         1 960       0.163000
     30 H3         -16.2130   -19.8950   -50.5900 h1         1 960       0.061367
     31 H4         -16.2050   -19.5370   -52.3310 h1         1 960       0.061367
     32 H5         -17.6890   -19.2950   -51.3800 h1         1 960       0.061367
     33 H6         -17.9270   -25.8280   -52.5170 h4         1 960       0.025100
     34 H7         -19.8420   -22.5690   -54.5910 ha         1 960       0.154000
     35 H8         -21.1630   -27.7280   -55.8380 h4         1 960       0.063800
     36 H9         -24.6500   -23.1890   -50.8220 ha         1 960       0.156000
     37 H10        -26.5050   -23.4360   -52.4960 ha         1 960       0.161000
     38 H11        -17.0920   -24.3460   -50.9650 h4         1 960       0.041100
     39 CL1        -21.8300   -22.9610   -51.2220 cl         1 960      -0.107000
@<TRIPOS>BOND
     1     1     6 2   
     2     1     8 1   
     3     1    17 1   
     4     2     3 1   
     5     2    14 1   
     6     2    22 1   
     7     3    16 1   
     8     3    21 2   
     9     4    14 2   
    10     4    21 1   
    11     4    28 1   
    12     5    15 1   
    13     5    22 2   
    14     5    39 1   
    15     6    23 1   
    16     6    29 1   
    17     7    23 1   
    18     7    30 1   
    19     7    31 1   
    20     7    32 1   
    21     8     9 ar  
    22     8    12 ar  
    23     9    18 ar  
    24     9    33 1   
    25    10    11 ar  
    26    10    13 1   
    27    10    18 ar  
    28    11    12 ar  
    29    11    20 1   
    30    12    34 1   
    31    13    19 2   
    32    13    35 1   
    33    14    27 1   
    34    15    16 2   
    35    15    36 1   
    36    16    37 1   
    37    17    24 2   
    38    17    38 1   
    39    19    20 1   
    40    20    27 1   
    41    23    24 1   
    42    25    27 2   
    43    26    27 2   
@<TRIPOS>SUBSTRUCTURE
     1 960         1 TEMP              0 ****  ****    0 ROOT
