@<TRIPOS>MOLECULE
960
   39    43     1     0     0
SMALL
No Charge or Current Charge


@<TRIPOS>ATOM
      1 C10        -18.0460   -23.2700   -52.6290 cc         1 960      -0.175000
      2 N12        -23.7280   -23.0700   -54.4500 na         1 960       0.294900
      3 C13        -25.0230   -23.1500   -54.0110 cc         1 960      -0.080000
      4 C15        -24.9900   -23.5850   -56.1280 cd         1 960       0.102600
      5 C17        -22.9430   -22.5830   -52.3920 cd         1 960       0.411000
      6 C20        -18.3110   -21.9310   -52.6420 cd         1 960      -0.133000
      7 C24        -17.3660   -19.9890   -51.2680 c3         1 960       0.070900
      8 C01        -18.7240   -24.2380   -53.5030 ca         1 960       0.008000
      9 C02        -18.4100   -25.6250   -53.4130 ca         1 960       0.316900
     10 C04        -19.9350   -26.1470   -55.0440 ca         1 960       0.196700
     11 C05        -20.3080   -24.8450   -55.2120 ca         1 960      -0.033200
     12 C06        -19.7050   -23.8340   -54.4440 ca         1 960      -0.076000
     13 C07        -20.7460   -26.8990   -55.9680 cc         1 960       0.306200
     14 C11        -23.6770   -23.3360   -55.7800 cc         1 960      -0.377200
     15 C18        -24.2660   -22.6280   -51.8150 cd         1 960      -0.138000
     16 C19        -25.3230   -22.9180   -52.6430 cc         1 960      -0.017000
     17 C23        -17.0610   -23.4730   -51.6480 cc         1 960       0.262900
     18 N03        -19.0010   -26.5880   -54.1710 nb         1 960      -0.603000
     19 N08        -21.5820   -26.1150   -56.6660 nd         1 960      -0.489100
     20 N09        -21.3060   -24.8050   -56.1890 na         1 960      -0.063600
     21 N14        -25.8220   -23.4590   -55.0180 nd         1 960      -0.273600
     22 N16        -22.6250   -22.7920   -53.6770 nc         1 960      -0.460800
     23 N21        -17.4660   -21.4010   -51.6590 na         1 960       0.122800
     24 N22        -16.6830   -22.3680   -51.0390 nd         1 960      -0.521800
     25 O27        -22.6750   -23.7240   -58.1600 o          1 960      -0.520000
     26 O28        -21.4130   -22.1950   -56.5040 o          1 960      -0.520000
     27 S26        -22.2130   -23.3930   -56.8010 sy         1 960       1.292300
     28 H1         -25.3860   -23.8490   -57.1080 h4         1 960       0.257000
     29 H2         -18.9930   -21.3220   -53.2230 h4         1 960       0.163000
     30 H3         -17.5640   -19.8910   -50.1940 h1         1 960       0.061367
     31 H4         -16.3570   -19.6190   -51.4870 h1         1 960       0.061367
     32 H5         -18.0990   -19.3950   -51.8270 h1         1 960       0.061367
     33 H6         -17.6630   -25.9790   -52.7050 h4         1 960       0.025100
     34 H7         -19.9850   -22.7930   -54.5550 ha         1 960       0.154000
     35 H8         -20.7790   -27.9610   -56.1670 h4         1 960       0.063800
     36 H9         -24.4150   -22.4420   -50.7580 ha         1 960       0.156000
     37 H10        -26.3460   -22.9770   -52.2830 ha         1 960       0.161000
     38 H11        -16.6050   -24.4090   -51.3550 h4         1 960       0.041100
     39 Cl1        -21.6310   -22.2270   -51.3160 cl         1 960      -0.107000
@<TRIPOS>BOND
     1     1     6 2   
     2     1     8 1   
     3     1    17 1   
     4     2     3 1   
     5     2    14 1   
     6     2    22 1   
     7     3    16 1   
     8     3    21 2   
     9     4    14 2   
    10     4    21 1   
    11     4    28 1   
    12     5    15 1   
    13     5    22 2   
    14     5    39 1   
    15     6    23 1   
    16     6    29 1   
    17     7    23 1   
    18     7    30 1   
    19     7    31 1   
    20     7    32 1   
    21     8     9 ar  
    22     8    12 ar  
    23     9    18 ar  
    24     9    33 1   
    25    10    11 ar  
    26    10    13 1   
    27    10    18 ar  
    28    11    12 ar  
    29    11    20 1   
    30    12    34 1   
    31    13    19 2   
    32    13    35 1   
    33    14    27 1   
    34    15    16 2   
    35    15    36 1   
    36    16    37 1   
    37    17    24 2   
    38    17    38 1   
    39    19    20 1   
    40    20    27 1   
    41    23    24 1   
    42    25    27 2   
    43    26    27 2   
@<TRIPOS>SUBSTRUCTURE
     1 960         1 TEMP              0 ****  ****    0 ROOT
