@<TRIPOS>MOLECULE
961
   54    56     1     0     0
SMALL
bcc


@<TRIPOS>ATOM
      1 C1           0.3500    -1.1210     3.2620 ca         1 961       0.047900
      2 C2           1.0140    -0.7270     4.3970 ca         1 961      -0.116000
      3 C3           0.7420     0.5190     4.9560 ca         1 961      -0.123600
      4 C4          -0.2030     1.3230     4.3310 ca         1 961      -0.101000
      5 C5          -0.8710     0.9170     3.1840 ca         1 961      -0.149000
      6 C6          -0.6040    -0.3310     2.6220 ca         1 961      -0.015400
      7 C7           1.4640     0.9740     6.2170 c          1 961       0.925200
      8 C8          -1.2710     0.1870    -2.3240 ca         1 961      -0.099000
      9 C9          -1.3750    -0.9520    -1.5420 ca         1 961      -0.113300
     10 C10         -0.3900    -1.9260    -1.6520 ca         1 961      -0.119000
     11 C11          0.6580    -1.7430    -2.5330 ca         1 961      -0.127000
     12 C12          0.7690    -0.6020    -3.3320 ca         1 961      -0.055300
     13 C13          1.9620    -0.4870    -4.2730 c6         1 961       0.001300
     14 C14          1.7300     0.6260    -5.2990 c6         1 961      -0.065400
     15 C15          1.1830     1.8890    -4.6700 c6         1 961      -0.067400
     16 C16         -0.1920     1.6810    -4.0270 c6         1 961       0.001300
     17 C17         -0.2100     0.3950    -3.2080 ca         1 961      -0.059300
     18 C18         -0.4790     2.9040    -3.1470 c3         1 961      -0.082100
     19 C19         -1.2730     1.5880    -5.1120 c3         1 961      -0.082100
     20 C20          2.1840    -1.7920    -5.0480 c3         1 961      -0.081100
     21 C21          3.2200    -0.1900    -3.4440 c3         1 961      -0.081100
     22 C22         -2.5140    -1.1100    -0.5550 c3         1 961       0.118400
     23 C23         -2.1600    -0.2990     0.6970 c          1 961       0.636100
     24 N6          -1.2060    -0.8510     1.4740 ns         1 961      -0.436100
     25 F1           0.6250    -2.3280     2.7240 f          1 961      -0.181900
     26 O22         -3.7370    -0.6740    -1.0580 oh         1 961      -0.589800
     27 O23         -2.7070     0.7700     0.9000 o          1 961      -0.607100
     28 O71          1.1560     2.0970     6.6570 o          1 961      -0.819300
     29 O72          2.2980     0.1820     6.6950 o          1 961      -0.819300
     30 H2           1.7430    -1.3880     4.8480 ha         1 961       0.165000
     31 H4          -0.4280     2.2960     4.7460 ha         1 961       0.154000
     32 H5          -1.5960     1.5740     2.7340 ha         1 961       0.145000
     33 H8          -2.0450     0.9410    -2.2460 ha         1 961       0.137000
     34 H10         -0.4440    -2.8340    -1.0620 ha         1 961       0.128000
     35 H11          1.4090    -2.5190    -2.6060 ha         1 961       0.127000
     36 H141         2.6740     0.8350    -5.8110 hc         1 961       0.037700
     37 H142         1.0430     0.2680    -6.0730 hc         1 961       0.037700
     38 H151         1.8800     2.2560    -3.9100 hc         1 961       0.041700
     39 H152         1.1050     2.6840    -5.4170 hc         1 961       0.041700
     40 H181        -1.4870     2.9010    -2.7310 hc         1 961       0.035200
     41 H182         0.2270     2.9690    -2.3170 hc         1 961       0.035200
     42 H183        -0.3840     3.8160    -3.7410 hc         1 961       0.035200
     43 H191        -2.2660     1.4810    -4.6710 hc         1 961       0.035200
     44 H192        -1.2760     2.4940    -5.7220 hc         1 961       0.035200
     45 H193        -1.1170     0.7370    -5.7760 hc         1 961       0.035200
     46 H201         2.5060    -2.6170    -4.4100 hc         1 961       0.034367
     47 H202         1.2780    -2.1040    -5.5710 hc         1 961       0.034367
     48 H203         2.9660    -1.6420    -5.7950 hc         1 961       0.034367
     49 H211         3.3930    -0.9700    -2.7000 hc         1 961       0.034367
     50 H212         4.1000    -0.1440    -4.0890 hc         1 961       0.034367
     51 H213         3.1490     0.7580    -2.9090 hc         1 961       0.034367
     52 H22         -2.6000    -2.1690    -0.2820 h1         1 961       0.072700
     53 HN6         -0.8890    -1.7690     1.2000 hn         1 961       0.322500
     54 HO22        -3.9060     0.2060    -0.6930 ho         1 961       0.433000
@<TRIPOS>BOND
     1     1     2 ar  
     2     1     6 ar  
     3     1    25 1   
     4     2     3 ar  
     5     2    30 1   
     6     3     4 ar  
     7     3     7 1   
     8     4     5 ar  
     9     4    31 1   
    10     5     6 ar  
    11     5    32 1   
    12     6    24 1   
    13     7    28 1   
    14     7    29 1   
    15     8     9 ar  
    16     8    17 ar  
    17     8    33 1   
    18     9    10 ar  
    19     9    22 1   
    20    10    11 ar  
    21    10    34 1   
    22    11    12 ar  
    23    11    35 1   
    24    12    13 1   
    25    12    17 ar  
    26    13    14 1   
    27    13    20 1   
    28    13    21 1   
    29    14    15 1   
    30    14    36 1   
    31    14    37 1   
    32    15    16 1   
    33    15    38 1   
    34    15    39 1   
    35    16    17 1   
    36    16    18 1   
    37    16    19 1   
    38    18    40 1   
    39    18    41 1   
    40    18    42 1   
    41    19    43 1   
    42    19    44 1   
    43    19    45 1   
    44    20    46 1   
    45    20    47 1   
    46    20    48 1   
    47    21    49 1   
    48    21    50 1   
    49    21    51 1   
    50    22    23 1   
    51    22    26 1   
    52    22    52 1   
    53    23    24 1   
    54    23    27 2   
    55    24    53 1   
    56    26    54 1   
@<TRIPOS>SUBSTRUCTURE
     1 961         1 TEMP              0 ****  ****    0 ROOT
