@<TRIPOS>MOLECULE
962
   31    30     1     0     0
SMALL
bcc


@<TRIPOS>ATOM
      1 O12         -1.3320     2.3710    -0.1120 oh         1 962      -0.620800
      2 C11         -0.1540     2.1840     0.6570 c3         1 962       0.100400
      3 C10         -0.0300     0.7250     1.0690 c3         1 962       0.170800
      4 N1           0.1560    -0.2670     0.0300 n3         1 962      -0.738600
      5 C6          -0.9850    -0.6010    -0.8120 c3         1 962       0.146300
      6 C7          -2.2850    -0.9030    -0.0640 c3         1 962       0.149100
      7 C9          -3.1440    -1.8620    -0.8740 c3         1 962      -0.112600
      8 O8          -3.0640     0.2460     0.2170 oh         1 962      -0.607800
      9 C2           1.3470    -0.0860    -0.7720 c3         1 962       0.146300
     10 C3           2.6550    -0.0550     0.0200 c3         1 962       0.149100
     11 O4           2.7470    -1.1210     0.9420 oh         1 962      -0.607800
     12 C5           3.8380    -0.0300    -0.9390 c3         1 962      -0.112600
     13 H1          -1.5370     3.3090    -0.1650 ho         1 962       0.414000
     14 H2           0.7280     2.5020     0.0870 h1         1 962       0.025700
     15 H3          -0.1800     2.7900     1.5690 h1         1 962       0.025700
     16 H4           0.8160     0.6640     1.7580 h1         1 962       0.068200
     17 H5          -0.8970     0.4510     1.6750 h1         1 962       0.068200
     18 H7          -1.1900     0.1550    -1.5880 h1         1 962       0.035700
     19 H8          -0.7010    -1.5070    -1.3570 h1         1 962       0.035700
     20 H9          -2.0100    -1.4070     0.8760 h1         1 962       0.055200
     21 H10         -2.6390    -2.8200    -1.0020 hc         1 962       0.040200
     22 H11         -4.0950    -2.0520    -0.3730 hc         1 962       0.040200
     23 H12         -3.3590    -1.4570    -1.8650 hc         1 962       0.040200
     24 H13         -2.5190     1.0450     0.1200 ho         1 962       0.419500
     25 H14          1.3990    -0.9260    -1.4750 h1         1 962       0.035700
     26 H15          1.3100     0.8200    -1.4010 h1         1 962       0.035700
     27 H16          2.6960     0.8540     0.6290 h1         1 962       0.055200
     28 H17          2.5650    -1.9420     0.4710 ho         1 962       0.419500
     29 H18          3.7850     0.8350    -1.6020 hc         1 962       0.040200
     30 H19          4.7810     0.0260    -0.3940 hc         1 962       0.040200
     31 H20          3.8570    -0.9280    -1.5620 hc         1 962       0.040200
@<TRIPOS>BOND
     1     1     2 1   
     2     1    13 1   
     3     2     3 1   
     4     2    14 1   
     5     2    15 1   
     6     3     4 1   
     7     3    16 1   
     8     3    17 1   
     9     4     5 1   
    10     4     9 1   
    11     5     6 1   
    12     5    18 1   
    13     5    19 1   
    14     6     7 1   
    15     6     8 1   
    16     6    20 1   
    17     7    21 1   
    18     7    22 1   
    19     7    23 1   
    20     8    24 1   
    21     9    10 1   
    22     9    25 1   
    23     9    26 1   
    24    10    11 1   
    25    10    12 1   
    26    10    27 1   
    27    11    28 1   
    28    12    29 1   
    29    12    30 1   
    30    12    31 1   
@<TRIPOS>SUBSTRUCTURE
     1 962         1 TEMP              0 ****  ****    0 ROOT
