@<TRIPOS>MOLECULE
962
   31    30     1     0     0
SMALL
No Charge or Current Charge


@<TRIPOS>ATOM
      1 O12         -1.6370     2.3490     0.0820 oh         1 962      -0.683000
      2 C11         -0.3110     2.2410     0.6270 c3         1 962       0.123600
      3 C10          0.0160     0.7880     1.0930 c3         1 962       0.170800
      4 N1           0.2380    -0.2470     0.0230 n3         1 962      -0.738600
      5 C6          -0.9570    -0.5850    -0.8110 c3         1 962       0.146300
      6 C7          -2.2280    -1.0840    -0.0520 c3         1 962       0.172300
      7 C9          -3.1750    -1.8820    -0.9710 c3         1 962      -0.112600
      8 O8          -2.9690     0.0170     0.4940 oh         1 962      -0.670000
      9 C2           1.4470     0.0040    -0.8240 c3         1 962       0.146300
     10 C3           2.7860    -0.0460    -0.0380 c3         1 962       0.172300
     11 O4           2.6980    -1.1430     0.8730 oh         1 962      -0.670000
     12 C5           4.0210    -0.2160    -0.9430 c3         1 962      -0.112600
     13 H1          -1.7490     3.2810    -0.2140 ho         1 962       0.453000
     14 H2           0.4350     2.5700    -0.1070 h1         1 962       0.025700
     15 H3          -0.2200     2.9040     1.4970 h1         1 962       0.025700
     16 H4           0.9140     0.8570     1.7220 h1         1 962       0.068200
     17 H5          -0.7760     0.4620     1.7790 h1         1 962       0.068200
     18 H7          -1.2320     0.2650    -1.4500 h1         1 962       0.035700
     19 H8          -0.6670    -1.3910    -1.4990 h1         1 962       0.035700
     20 H9          -1.8990    -1.7560     0.7530 h1         1 962       0.055200
     21 H10         -2.6630    -2.7620    -1.3790 hc         1 962       0.040200
     22 H11         -4.0520    -2.2300    -0.4130 hc         1 962       0.040200
     23 H12         -3.5200    -1.2650    -1.8090 hc         1 962       0.040200
     24 H13         -2.4190     0.8310     0.3300 ho         1 962       0.458500
     25 H14          1.5010    -0.7640    -1.6080 h1         1 962       0.035700
     26 H15          1.3680     0.9690    -1.3420 h1         1 962       0.035700
     27 H16          2.8920     0.8950     0.5200 h1         1 962       0.055200
     28 H17          1.7200    -1.2820     0.9380 ho         1 962       0.458500
     29 H18          4.0940     0.6170    -1.6520 hc         1 962       0.040200
     30 H19          4.9380    -0.2340    -0.3420 hc         1 962       0.040200
     31 H20          3.9640    -1.1510    -1.5140 hc         1 962       0.040200
@<TRIPOS>BOND
     1     1     2 1   
     2     1    13 1   
     3     2     3 1   
     4     2    14 1   
     5     2    15 1   
     6     3     4 1   
     7     3    16 1   
     8     3    17 1   
     9     4     5 1   
    10     4     9 1   
    11     5     6 1   
    12     5    18 1   
    13     5    19 1   
    14     6     7 1   
    15     6     8 1   
    16     6    20 1   
    17     7    21 1   
    18     7    22 1   
    19     7    23 1   
    20     8    24 1   
    21     9    10 1   
    22     9    25 1   
    23     9    26 1   
    24    10    11 1   
    25    10    12 1   
    26    10    27 1   
    27    11    28 1   
    28    12    29 1   
    29    12    30 1   
    30    12    31 1   
@<TRIPOS>SUBSTRUCTURE
     1 962         1 TEMP              0 ****  ****    0 ROOT
