@<TRIPOS>MOLECULE
963
   47    50     1     0     0
SMALL
No Charge or Current Charge


@<TRIPOS>ATOM
      1 O2          13.2520    25.6700    32.9030 os         1 963      -0.340600
      2 O3          13.5580    19.8460    31.4470 o          1 963      -0.588100
      3 C5          13.5090    24.3310    33.1510 ca         1 963       0.097100
      4 C6          14.2380    23.9790    34.3100 ca         1 963       0.103100
      5 C7          12.4990    26.1180    31.7610 c3         1 963       0.151400
      6 C10          9.8370    22.6130    30.3590 c6         1 963      -0.031100
      7 C11          9.8490    22.0340    28.9400 ca         1 963      -0.061300
      8 C16         10.5780    20.8600    28.6480 ca         1 963      -0.088300
      9 C17         11.3240    20.1150    29.7600 c6         1 963       0.132000
     10 C18         10.4400    18.9600    30.3090 c6         1 963       0.094000
     11 O4           8.7620    20.7900    32.9330 o          1 963      -0.563000
     12 C9          10.4670    21.6870    31.4390 c6         1 963       0.030700
     13 N1           9.4330    19.4070    31.2930 ns         1 963      -0.499900
     14 C15         10.5950    20.3590    27.3310 ca         1 963      -0.102000
     15 C14          9.8950    21.0240    26.3110 ca         1 963      -0.108000
     16 C13          9.1740    22.1930    26.6010 ca         1 963      -0.101000
     17 C12          9.1530    22.6970    27.9130 ca         1 963      -0.105000
     18 N           11.6920    21.0450    30.8600 n          1 963      -0.398800
     19 C3          13.3290    21.9520    32.5500 ca         1 963      -0.117600
     20 C2          14.0810    21.6210    33.6990 ca         1 963      -0.154000
     21 C4          13.0680    23.3140    32.2740 ca         1 963      -0.154000
     22 O1          14.6830    24.9430    35.1820 oh         1 963      -0.510100
     23 C1          14.5300    22.6270    34.5810 ca         1 963       0.097100
     24 O           15.2580    22.3380    35.7240 os         1 963      -0.340600
     25 C           15.6100    20.9920    36.0940 c3         1 963       0.151400
     26 H1          12.4100    27.2110    31.7700 h1         1 963       0.043033
     27 H2          12.9960    25.8270    30.8270 h1         1 963       0.043033
     28 H3          11.4870    25.6940    31.7700 h1         1 963       0.043033
     29 H4          10.3910    23.5600    30.3410 hc         1 963       0.068200
     30 H5           8.8110    22.8780    30.6490 hc         1 963       0.068200
     31 H6          12.2340    19.6820    29.3190 h1         1 963       0.101700
     32 H7           9.9350    18.4410    29.4810 h1         1 963       0.055200
     33 H8          11.0890    18.2270    30.8090 h1         1 963       0.055200
     34 H9          10.7080    22.2770    32.3320 h1         1 963       0.101700
     35 H10          8.7790    18.7230    31.6570 hn         1 963       0.319500
     36 H11         11.1490    19.4520    27.0980 ha         1 963       0.112000
     37 H12          9.9120    20.6330    25.2960 ha         1 963       0.116000
     38 H13          8.6330    22.7100    25.8110 ha         1 963       0.116000
     39 H14          8.5960    23.6060    28.1300 ha         1 963       0.114000
     40 H15         14.2970    20.5750    33.8950 ha         1 963       0.131500
     41 H16         12.5410    23.5690    31.3610 ha         1 963       0.131500
     42 H17         15.1640    24.4760    35.9000 ho         1 963       0.479000
     43 H18         16.1840    20.9930    37.0290 h1         1 963       0.043033
     44 H19         14.7110    20.3810    36.2480 h1         1 963       0.043033
     45 H20         16.2270    20.5220    35.3180 h1         1 963       0.043033
     46 C8          12.8720    20.8490    31.6110 c          1 963       0.625700
     47 C19          9.4250    20.6360    31.9190 c          1 963       0.552000
@<TRIPOS>BOND
     1     1     3 1   
     2     1     5 1   
     3     2    46 2   
     4     3     4 ar  
     5     3    21 ar  
     6     4    22 1   
     7     4    23 ar  
     8     5    26 1   
     9     5    27 1   
    10     5    28 1   
    11     6     7 1   
    12     6    12 1   
    13     6    29 1   
    14     6    30 1   
    15     7     8 ar  
    16     7    17 ar  
    17     8     9 1   
    18     8    14 ar  
    19     9    10 1   
    20     9    18 1   
    21     9    31 1   
    22    10    13 1   
    23    10    32 1   
    24    10    33 1   
    25    11    47 2   
    26    12    18 1   
    27    12    34 1   
    28    12    47 1   
    29    13    35 1   
    30    13    47 1   
    31    14    15 ar  
    32    14    36 1   
    33    15    16 ar  
    34    15    37 1   
    35    16    17 ar  
    36    16    38 1   
    37    17    39 1   
    38    18    46 1   
    39    19    20 ar  
    40    19    21 ar  
    41    19    46 1   
    42    20    23 ar  
    43    20    40 1   
    44    21    41 1   
    45    22    42 1   
    46    23    24 1   
    47    24    25 1   
    48    25    43 1   
    49    25    44 1   
    50    25    45 1   
@<TRIPOS>SUBSTRUCTURE
     1 963         1 TEMP              0 ****  ****    0 ROOT
