@<TRIPOS>MOLECULE
963
   47    50     1     0     0
SMALL
bcc


@<TRIPOS>ATOM
      1 O2          13.3990    25.6780    33.0030 os         1 963      -0.317400
      2 O3          13.8690    20.2160    31.0070 o          1 963      -0.588100
      3 C5          13.5450    24.3470    33.1250 ca         1 963       0.097100
      4 C6          14.1290    23.9130    34.3190 ca         1 963       0.103100
      5 C7          12.7810    26.1790    31.8350 c3         1 963       0.128200
      6 C10          9.9950    22.6700    30.3730 c6         1 963      -0.031100
      7 C11          9.8380    22.0170    29.0280 ca         1 963      -0.061300
      8 C16         10.5410    20.8550    28.7180 ca         1 963      -0.088300
      9 C17         11.4520    20.1860    29.7230 c6         1 963       0.132000
     10 C18         10.7950    18.9810    30.3840 c6         1 963       0.094000
     11 O4           8.7160    20.9670    32.5630 o          1 963      -0.638500
     12 C9          10.6360    21.7140    31.3740 c6         1 963       0.030700
     13 N1           9.7580    19.4240    31.2930 ns         1 963      -0.566900
     14 C15         10.3950    20.2750    27.4600 ca         1 963      -0.120000
     15 C14          9.5590    20.8380    26.5110 ca         1 963      -0.126000
     16 C13          8.8560    21.9970    26.8170 ca         1 963      -0.119000
     17 C12          8.9990    22.5780    28.0670 ca         1 963      -0.123000
     18 N           11.8150    21.1210    30.7710 n          1 963      -0.465800
     19 C3          13.3720    22.0600    32.3920 ca         1 963      -0.117600
     20 C2          13.9740    21.6190    33.5640 ca         1 963      -0.172000
     21 C4          13.1640    23.4160    32.1660 ca         1 963      -0.172000
     22 O1          14.4800    24.8370    35.2310 oh         1 963      -0.471100
     23 C1          14.3360    22.5460    34.5310 ca         1 963       0.097100
     24 O           14.9020    22.2510    35.7190 os         1 963      -0.317400
     25 C           15.1520    20.8960    36.0350 c3         1 963       0.128200
     26 H1          12.7430    27.2590    31.9450 h1         1 963       0.043033
     27 H2          13.3510    25.9360    30.9340 h1         1 963       0.043033
     28 H3          11.7610    25.8010    31.7180 h1         1 963       0.043033
     29 H4          10.6270    23.5590    30.2860 hc         1 963       0.068200
     30 H5           9.0310    23.0170    30.7490 hc         1 963       0.068200
     31 H6          12.3560    19.8490    29.2170 h1         1 963       0.101700
     32 H7          10.3530    18.3280    29.6310 h1         1 963       0.055200
     33 H8          11.5520    18.4010    30.9190 h1         1 963       0.055200
     34 H9          10.9110    22.2560    32.2760 h1         1 963       0.101700
     35 H10          9.0890    18.7340    31.6020 hn         1 963       0.319500
     36 H11         10.9480    19.3730    27.2210 ha         1 963       0.130000
     37 H12          9.4600    20.3780    25.5360 ha         1 963       0.134000
     38 H13          8.1980    22.4460    26.0840 ha         1 963       0.134000
     39 H14          8.4490    23.4800    28.3080 ha         1 963       0.132000
     40 H15         14.1400    20.5610    33.7170 ha         1 963       0.149500
     41 H16         12.7260    23.7400    31.2320 ha         1 963       0.149500
     42 H17         14.8730    24.4040    36.0000 ho         1 963       0.440000
     43 H18         15.5960    20.8870    37.0260 h1         1 963       0.043033
     44 H19         14.2300    20.3090    36.0540 h1         1 963       0.043033
     45 H20         15.8500    20.4380    35.3300 h1         1 963       0.043033
     46 C8          13.0430    21.0490    31.3460 c          1 963       0.692700
     47 C19          9.6200    20.6550    31.8030 c          1 963       0.694500
@<TRIPOS>BOND
     1     1     3 1   
     2     1     5 1   
     3     2    46 2   
     4     3     4 ar  
     5     3    21 ar  
     6     4    22 1   
     7     4    23 ar  
     8     5    26 1   
     9     5    27 1   
    10     5    28 1   
    11     6     7 1   
    12     6    12 1   
    13     6    29 1   
    14     6    30 1   
    15     7     8 ar  
    16     7    17 ar  
    17     8     9 1   
    18     8    14 ar  
    19     9    10 1   
    20     9    18 1   
    21     9    31 1   
    22    10    13 1   
    23    10    32 1   
    24    10    33 1   
    25    11    47 2   
    26    12    18 1   
    27    12    34 1   
    28    12    47 1   
    29    13    35 1   
    30    13    47 1   
    31    14    15 ar  
    32    14    36 1   
    33    15    16 ar  
    34    15    37 1   
    35    16    17 ar  
    36    16    38 1   
    37    17    39 1   
    38    18    46 1   
    39    19    20 ar  
    40    19    21 ar  
    41    19    46 1   
    42    20    23 ar  
    43    20    40 1   
    44    21    41 1   
    45    22    42 1   
    46    23    24 1   
    47    24    25 1   
    48    25    43 1   
    49    25    44 1   
    50    25    45 1   
@<TRIPOS>SUBSTRUCTURE
     1 963         1 TEMP              0 ****  ****    0 ROOT
