@<TRIPOS>MOLECULE
964
   57    58     1     0     0
SMALL
No Charge or Current Charge


@<TRIPOS>ATOM
      1 O31          1.5200    -2.5980    -4.7440 o          1 964      -0.687000
      2 C1           2.2480    -3.4940     9.5690 c3         1 964      -0.180100
      3 C2           1.7870    -2.3030     8.7410 c          1 964       0.598100
      4 N4           0.6520    -1.6800     9.2080 ns         1 964      -0.510900
      5 O3           2.3790    -1.9270     7.7410 o          1 964      -0.600100
      6 C29          2.2170    -1.8230    -5.3860 c          1 964       0.611500
      7 O30          3.2970    -1.4090    -4.9800 o          1 964      -0.687000
      8 C24          1.7300    -1.3830    -6.7710 ca         1 964       0.275500
      9 N25          2.5580    -1.5910    -7.8530 nb         1 964      -0.615000
     10 C26          2.0580    -1.2610    -9.0700 ca         1 964       0.271900
     11 C27          0.7530    -0.7370    -9.2310 ca         1 964       0.240900
     12 N28         -0.0700    -0.5080    -8.1770 nb         1 964      -0.637000
     13 C22          0.4230    -0.8210    -6.9290 ca         1 964       0.250500
     14 C21         -0.4520    -0.4850    -5.7180 c          1 964       0.568600
     15 O23         -1.6510    -0.7490    -5.6770 o          1 964      -0.602100
     16 N20          0.1590     0.1860    -4.6670 ns         1 964      -0.488900
     17 C17         -0.4990     0.5960    -3.4210 c6         1 964       0.119700
     18 C18         -0.5680    -0.5910    -2.4240 c6         1 964      -0.094900
     19 C19         -1.2440    -0.1800    -1.0920 c6         1 964      -0.062900
     20 C16          0.2750     1.7780    -2.7790 c6         1 964      -0.094900
     21 C15         -0.3860     2.2400    -1.4550 c6         1 964      -0.062900
     22 C13         -0.5410     1.0540    -0.4670 c6         1 964      -0.140700
     23 C12         -1.1350     1.4700     0.8960 c          1 964       0.600100
     24 O14         -2.2770     1.8930     1.0070 o          1 964      -0.605100
     25 N11         -0.3010     1.3370     1.9830 ns         1 964      -0.515900
     26 C10         -0.6810     1.6770     3.3580 c3         1 964       0.106000
     27 C9           0.4640     1.4260     4.3560 c3         1 964       0.029600
     28 S7          -1.5800     0.5740     6.5440 ss         1 964      -0.224000
     29 C5           0.0110    -0.5210     8.5740 c3         1 964       0.104000
     30 C6          -0.7120    -0.8900     7.2630 c3         1 964       0.018600
     31 S8          -0.0310     1.9030     6.0720 ss         1 964      -0.222000
     32 H11A         2.3840    -3.1750    10.6090 hc         1 964       0.059367
     33 H12          1.4240    -4.2120     9.6520 hc         1 964       0.059367
     34 H13A         3.1540    -3.9630     9.1680 hc         1 964       0.059367
     35 H4           0.2370    -2.0630    10.0500 hn         1 964       0.310500
     36 H26          2.7060    -1.4280    -9.9280 h4         1 964       0.003100
     37 H27          0.3670    -0.4870   -10.2180 h4         1 964       0.003100
     38 H20          1.1410     0.4080    -4.7720 hn         1 964       0.312500
     39 H17         -1.5210     0.9300    -3.6570 h1         1 964       0.071700
     40 H181         0.4450    -0.9680    -2.2230 hc         1 964       0.057200
     41 H182        -1.1240    -1.4250    -2.8730 hc         1 964       0.057200
     42 H191        -1.2230    -1.0230    -0.3870 hc         1 964       0.046450
     43 H192        -2.3030     0.0500    -1.2730 hc         1 964       0.046450
     44 H161         1.3160     1.4830    -2.5870 hc         1 964       0.057200
     45 H162         0.3140     2.6220    -3.4810 hc         1 964       0.057200
     46 H151        -1.3720     2.6760    -1.6690 hc         1 964       0.046450
     47 H152         0.2160     3.0370    -0.9970 hc         1 964       0.046450
     48 H13          0.4840     0.7240    -0.2440 hc         1 964       0.049700
     49 H11          0.6300     0.9790     1.8050 hn         1 964       0.311500
     50 H101        -1.5550     1.0750     3.6400 h1         1 964       0.062700
     51 H102        -0.9690     2.7360     3.3940 h1         1 964       0.062700
     52 H91          1.3400     2.0200     4.0660 h1         1 964       0.079700
     53 H92          0.7440     0.3650     4.3470 h1         1 964       0.079700
     54 H51         -0.7140    -0.0930     9.2780 h1         1 964       0.067700
     55 H52          0.7750     0.2410     8.3730 h1         1 964       0.067700
     56 H61          0.0100    -1.2730     6.5300 h1         1 964       0.081700
     57 H62         -1.4520    -1.6750     7.4620 h1         1 964       0.081700
@<TRIPOS>BOND
     1     1     6 1   
     2     2     3 1   
     3     2    32 1   
     4     2    33 1   
     5     2    34 1   
     6     3     4 1   
     7     3     5 2   
     8     4    29 1   
     9     4    35 1   
    10     6     7 1   
    11     6     8 1   
    12     8     9 ar  
    13     8    13 ar  
    14     9    10 ar  
    15    10    11 ar  
    16    10    36 1   
    17    11    12 ar  
    18    11    37 1   
    19    12    13 ar  
    20    13    14 1   
    21    14    15 2   
    22    14    16 1   
    23    16    17 1   
    24    16    38 1   
    25    17    18 1   
    26    17    20 1   
    27    17    39 1   
    28    18    19 1   
    29    18    40 1   
    30    18    41 1   
    31    19    22 1   
    32    19    42 1   
    33    19    43 1   
    34    20    21 1   
    35    20    44 1   
    36    20    45 1   
    37    21    22 1   
    38    21    46 1   
    39    21    47 1   
    40    22    23 1   
    41    22    48 1   
    42    23    24 2   
    43    23    25 1   
    44    25    26 1   
    45    25    49 1   
    46    26    27 1   
    47    26    50 1   
    48    26    51 1   
    49    27    31 1   
    50    27    52 1   
    51    27    53 1   
    52    28    30 1   
    53    28    31 1   
    54    29    30 1   
    55    29    54 1   
    56    29    55 1   
    57    30    56 1   
    58    30    57 1   
@<TRIPOS>SUBSTRUCTURE
     1 964         1 TEMP              0 ****  ****    0 ROOT
