@<TRIPOS>MOLECULE
964
   57    58     1     0     0
SMALL
bcc


@<TRIPOS>ATOM
      1 O31          0.4060    -2.7840    -5.2200 o          1 964      -0.792300
      2 C1           2.3900    -3.0620     9.6010 c3         1 964      -0.180100
      3 C2           1.8590    -1.8420     8.8920 c          1 964       0.665100
      4 N4           0.5790    -1.5270     9.1610 ns         1 964      -0.577900
      5 O3           2.5580    -1.1760     8.1400 o          1 964      -0.600100
      6 C29          1.4720    -2.6330    -5.8430 c          1 964       0.822100
      7 O30          2.5450    -3.2370    -5.7020 o          1 964      -0.792300
      8 C24          1.4210    -1.5670    -6.9330 ca         1 964       0.275500
      9 N25          2.2160    -1.7070    -7.9880 nb         1 964      -0.615000
     10 C26          2.1040    -0.8280    -8.9710 ca         1 964       0.271900
     11 C27          1.1910     0.2150    -8.9120 ca         1 964       0.240900
     12 N28          0.4120     0.3850    -7.8550 nb         1 964      -0.637000
     13 C22          0.5270    -0.4950    -6.8680 ca         1 964       0.250500
     14 C21         -0.3800    -0.2320    -5.6950 c          1 964       0.635600
     15 O23         -1.5930    -0.3030    -5.8170 o          1 964      -0.602100
     16 N20          0.2550     0.2100    -4.6030 ns         1 964      -0.555900
     17 C17         -0.4020     0.4850    -3.3400 c6         1 964       0.119700
     18 C18         -0.5180    -0.7660    -2.4710 c6         1 964      -0.094900
     19 C19         -1.1830    -0.4460    -1.1370 c6         1 964      -0.062900
     20 C16          0.3500     1.5880    -2.6030 c6         1 964      -0.094900
     21 C15         -0.3040     1.9040    -1.2640 c6         1 964      -0.062900
     22 C13         -0.4200     0.6480    -0.3910 c6         1 964      -0.140700
     23 C12         -1.0950     1.0060     0.9180 c          1 964       0.667100
     24 O14         -2.3040     1.1770     1.0060 o          1 964      -0.605100
     25 N11         -0.2700     1.1530     1.9680 ns         1 964      -0.582900
     26 C10         -0.7240     1.6050     3.2660 c3         1 964       0.106000
     27 C9           0.3550     1.3630     4.3050 c3         1 964      -0.018300
     28 S7          -1.6270     0.5970     6.4560 ss         1 964      -0.176100
     29 C5          -0.1070    -0.4110     8.5550 c3         1 964       0.104000
     30 C6          -0.7060    -0.7780     7.2040 c3         1 964      -0.029300
     31 S8          -0.1440     1.9260     5.9560 ss         1 964      -0.174100
     32 H11A         3.1680    -2.7610    10.3030 hc         1 964       0.059367
     33 H12          1.6300    -3.6150    10.1510 hc         1 964       0.059367
     34 H13A         2.8500    -3.7320     8.8760 hc         1 964       0.059367
     35 H4           0.0390    -2.1420     9.7470 hn         1 964       0.310500
     36 H26          2.7500    -0.9500    -9.8320 h4         1 964       0.003100
     37 H27          1.0960     0.9220    -9.7260 h4         1 964       0.003100
     38 H20          1.2630     0.1720    -4.5930 hn         1 964       0.312500
     39 H17         -1.4080     0.8480    -3.5690 h1         1 964       0.071700
     40 H181         0.4830    -1.1760    -2.3010 hc         1 964       0.057200
     41 H182        -1.0820    -1.5330    -3.0040 hc         1 964       0.057200
     42 H191        -1.2400    -1.3500    -0.5260 hc         1 964       0.046450
     43 H192        -2.2110    -0.1150    -1.3090 hc         1 964       0.046450
     44 H161         1.3860     1.2700    -2.4350 hc         1 964       0.057200
     45 H162         0.3890     2.4880    -3.2200 hc         1 964       0.057200
     46 H151        -1.3030     2.3190    -1.4320 hc         1 964       0.046450
     47 H152         0.2750     2.6730    -0.7460 hc         1 964       0.046450
     48 H13          0.5930     0.2830    -0.1860 hc         1 964       0.049700
     49 H11          0.7220     1.0670     1.8140 hn         1 964       0.311500
     50 H101        -1.6270     1.0580     3.5420 h1         1 964       0.062700
     51 H102        -0.9800     2.6680     3.2440 h1         1 964       0.062700
     52 H91          1.2540     1.9420     4.0790 h1         1 964       0.079700
     53 H92          0.6420     0.3110     4.3500 h1         1 964       0.079700
     54 H51         -0.8960    -0.0860     9.2320 h1         1 964       0.067700
     55 H52          0.5900     0.4190     8.4390 h1         1 964       0.067700
     56 H61          0.0590    -1.1290     6.5110 h1         1 964       0.081700
     57 H62         -1.4460    -1.5750     7.3130 h1         1 964       0.081700
@<TRIPOS>BOND
     1     1     6 1   
     2     2     3 1   
     3     2    32 1   
     4     2    33 1   
     5     2    34 1   
     6     3     4 1   
     7     3     5 2   
     8     4    29 1   
     9     4    35 1   
    10     6     7 1   
    11     6     8 1   
    12     8     9 ar  
    13     8    13 ar  
    14     9    10 ar  
    15    10    11 ar  
    16    10    36 1   
    17    11    12 ar  
    18    11    37 1   
    19    12    13 ar  
    20    13    14 1   
    21    14    15 2   
    22    14    16 1   
    23    16    17 1   
    24    16    38 1   
    25    17    18 1   
    26    17    20 1   
    27    17    39 1   
    28    18    19 1   
    29    18    40 1   
    30    18    41 1   
    31    19    22 1   
    32    19    42 1   
    33    19    43 1   
    34    20    21 1   
    35    20    44 1   
    36    20    45 1   
    37    21    22 1   
    38    21    46 1   
    39    21    47 1   
    40    22    23 1   
    41    22    48 1   
    42    23    24 2   
    43    23    25 1   
    44    25    26 1   
    45    25    49 1   
    46    26    27 1   
    47    26    50 1   
    48    26    51 1   
    49    27    31 1   
    50    27    52 1   
    51    27    53 1   
    52    28    30 1   
    53    28    31 1   
    54    29    30 1   
    55    29    54 1   
    56    29    55 1   
    57    30    56 1   
    58    30    57 1   
@<TRIPOS>SUBSTRUCTURE
     1 964         1 TEMP              0 ****  ****    0 ROOT
