@<TRIPOS>MOLECULE
965
   71    74     1     0     0
SMALL
abcg2


@<TRIPOS>ATOM
      1 O37         10.0200    -1.6530     2.0300 o          1 965      -0.725000
      2 C35          9.0170    -1.1300     1.5050 c          1 965       0.726000
      3 O36          8.3960    -0.1320     1.9060 o          1 965      -0.725000
      4 C34          8.4920    -1.8440     0.2330 c3         1 965      -0.194100
      5 C32          7.5030    -1.0520    -0.5620 ca         1 965       0.042700
      6 C31          7.9120    -0.2810    -1.6510 ca         1 965      -0.149000
      7 C30          6.9870     0.4570    -2.3690 ca         1 965      -0.087000
      8 C29          5.6370     0.4450    -2.0330 ca         1 965      -0.233000
      9 C28          5.2210    -0.3280    -0.9510 ca         1 965       0.126100
     10 O27          3.9400    -0.4270    -0.5370 os         1 965      -0.354100
     11 C26          2.9300     0.2550    -1.2590 c3         1 965       0.171600
     12 C25          1.5930    -0.0900    -0.6380 c3         1 965      -0.088400
     13 C17          0.4520     0.6010    -1.3720 c3         1 965       0.178800
     14 N09         -0.8400     0.2470    -0.8080 n3         1 965      -0.744600
     15 C16         -1.2880    -1.0640    -1.2230 c3         1 965       0.220100
     16 C18         -2.0060    -1.8230    -0.1300 ca         1 965      -0.080300
     17 C23         -1.9260    -1.4130     1.1970 ca         1 965      -0.047000
     18 C22         -2.5700    -2.1100     2.2040 ca         1 965      -0.118000
     19 C21         -3.3060    -3.2450     1.9070 ca         1 965      -0.062000
     20 C20         -3.3930    -3.6910     0.5950 ca         1 965      -0.200300
     21 C19         -2.7370    -2.9750    -0.4070 ca         1 965       0.157000
     22 CL4         -2.8040    -3.5320    -2.0490 cl         1 965      -0.191000
     23 C39         -4.1770    -4.9310     0.2790 c3         1 965       0.363300
     24 F41         -4.7550    -5.4470     1.3670 f          1 965      -0.112333
     25 F40         -5.1590    -4.6970    -0.6010 f          1 965      -0.112333
     26 F42         -3.4060    -5.8960    -0.2400 f          1 965      -0.112333
     27 C08         -1.8750     1.2450    -1.0060 c3         1 965       0.184800
     28 C07         -1.6660     2.5080    -0.1590 c3         1 965       0.026900
     29 C01         -2.6860     3.5880    -0.4490 ca         1 965      -0.067300
     30 C02         -2.3460     4.9160    -0.1880 ca         1 965      -0.103000
     31 C03         -3.2480     5.9450    -0.4050 ca         1 965      -0.112250
     32 C04         -4.5190     5.6660    -0.8930 ca         1 965      -0.115000
     33 C05         -4.8700     4.3510    -1.1610 ca         1 965      -0.112250
     34 C06         -3.9620     3.3220    -0.9400 ca         1 965      -0.103000
     35 C10         -1.6210     2.1580     1.3110 ca         1 965      -0.067300
     36 C15         -2.7830     1.8710     2.0220 ca         1 965      -0.103000
     37 C14         -2.7240     1.4730     3.3510 ca         1 965      -0.112250
     38 C13         -1.4970     1.3590     3.9920 ca         1 965      -0.115000
     39 C12         -0.3320     1.6550     3.2960 ca         1 965      -0.112250
     40 C11         -0.3980     2.0530     1.9670 ca         1 965      -0.103000
     41 C33          6.1570    -1.0640    -0.2250 ca         1 965      -0.132000
     42 H341         9.3450    -2.1230    -0.3920 hc         1 965       0.033200
     43 H342         8.0380    -2.7870     0.5560 hc         1 965       0.033200
     44 H31          8.9580    -0.2610    -1.9350 ha         1 965       0.108000
     45 H30          7.3100     1.0520    -3.2140 ha         1 965       0.087000
     46 H29          4.9400     1.0310    -2.6160 ha         1 965       0.090000
     47 H261         3.1000     1.3380    -1.2270 h1         1 965       0.024200
     48 H262         2.9450    -0.0450    -2.3140 h1         1 965       0.024200
     49 H251         1.4620    -1.1760    -0.6600 hc         1 965       0.061700
     50 H252         1.5710     0.2120     0.4120 hc         1 965       0.061700
     51 H171         0.5910     1.6790    -1.2840 h1         1 965       0.031200
     52 H172         0.5020     0.3800    -2.4500 h1         1 965       0.031200
     53 H161        -1.9310    -1.0050    -2.1120 h1         1 965       0.054200
     54 H162        -0.4280    -1.6620    -1.5380 h1         1 965       0.054200
     55 H23         -1.3510    -0.5270     1.4260 ha         1 965       0.157000
     56 H22         -2.5010    -1.7670     3.2270 ha         1 965       0.126000
     57 H21         -3.8070    -3.7760     2.7030 ha         1 965       0.130000
     58 H081        -1.9690     1.5310    -2.0660 h1         1 965       0.036700
     59 H082        -2.8280     0.7900    -0.7230 h1         1 965       0.036700
     60 H07         -0.6920     2.9320    -0.4220 hc         1 965       0.062700
     61 H02         -1.3560     5.1460     0.1910 ha         1 965       0.114250
     62 H03         -2.9580     6.9670    -0.1980 ha         1 965       0.112500
     63 H04         -5.2260     6.4670    -1.0670 ha         1 965       0.109500
     64 H05         -5.8550     4.1180    -1.5450 ha         1 965       0.112500
     65 H06         -4.2670     2.3070    -1.1610 ha         1 965       0.114250
     66 H15         -3.7490     1.9520     1.5380 ha         1 965       0.114250
     67 H14         -3.6380     1.2500     3.8850 ha         1 965       0.112500
     68 H13         -1.4490     1.0470     5.0280 ha         1 965       0.109500
     69 H12          0.6290     1.5740     3.7870 ha         1 965       0.112500
     70 H111         0.5180     2.2760     1.4330 ha         1 965       0.114250
     71 H33          5.8150    -1.6620     0.6130 ha         1 965       0.125000
@<TRIPOS>BOND
     1     1     2 1   
     2     2     3 1   
     3     2     4 1   
     4     4     5 1   
     5     4    42 1   
     6     4    43 1   
     7     5     6 ar  
     8     5    41 ar  
     9     6     7 ar  
    10     6    44 1   
    11     7     8 ar  
    12     7    45 1   
    13     8     9 ar  
    14     8    46 1   
    15     9    10 1   
    16     9    41 ar  
    17    10    11 1   
    18    11    12 1   
    19    11    47 1   
    20    11    48 1   
    21    12    13 1   
    22    12    49 1   
    23    12    50 1   
    24    13    14 1   
    25    13    51 1   
    26    13    52 1   
    27    14    15 1   
    28    14    27 1   
    29    15    16 1   
    30    15    53 1   
    31    15    54 1   
    32    16    17 ar  
    33    16    21 ar  
    34    17    18 ar  
    35    17    55 1   
    36    18    19 ar  
    37    18    56 1   
    38    19    20 ar  
    39    19    57 1   
    40    20    21 ar  
    41    20    23 1   
    42    21    22 1   
    43    23    24 1   
    44    23    25 1   
    45    23    26 1   
    46    27    28 1   
    47    27    58 1   
    48    27    59 1   
    49    28    29 1   
    50    28    35 1   
    51    28    60 1   
    52    29    30 ar  
    53    29    34 ar  
    54    30    31 ar  
    55    30    61 1   
    56    31    32 ar  
    57    31    62 1   
    58    32    33 ar  
    59    32    63 1   
    60    33    34 ar  
    61    33    64 1   
    62    34    65 1   
    63    35    36 ar  
    64    35    40 ar  
    65    36    37 ar  
    66    36    66 1   
    67    37    38 ar  
    68    37    67 1   
    69    38    39 ar  
    70    38    68 1   
    71    39    40 ar  
    72    39    69 1   
    73    40    70 1   
    74    41    71 1   
@<TRIPOS>SUBSTRUCTURE
     1 965         1 TEMP              0 ****  ****    0 ROOT
