@<TRIPOS>MOLECULE
965
   71    74     1     0     0
SMALL
No Charge or Current Charge


@<TRIPOS>ATOM
      1 O37         10.4550    -0.0430     1.1340 o          1 965      -0.725000
      2 C35          9.5900    -0.9050     1.1770 c          1 965       0.726000
      3 O36          8.9600    -1.1820     2.1870 o          1 965      -0.725000
      4 C34          9.1750    -1.5780    -0.1390 c3         1 965      -0.194100
      5 C32          8.0770    -0.7550    -0.8020 ca         1 965       0.042700
      6 C31          8.4030     0.2580    -1.7240 ca         1 965      -0.149000
      7 C30          7.3920     1.0130    -2.3400 ca         1 965      -0.087000
      8 C29          6.0430     0.7600    -2.0400 ca         1 965      -0.233000
      9 C28          5.7050    -0.2530    -1.1180 ca         1 965       0.126100
     10 O27          4.3980    -0.5460    -0.7850 os         1 965      -0.354100
     11 C26          3.2860     0.1620    -1.3580 c3         1 965       0.171600
     12 C25          1.9970    -0.4290    -0.7630 c3         1 965      -0.088400
     13 C17          0.7290     0.2560    -1.3170 c3         1 965       0.178800
     14 N09         -0.5350    -0.1360    -0.6410 n3         1 965      -0.744600
     15 C16         -0.9140    -1.5630    -0.8190 c3         1 965       0.220100
     16 C18         -1.9770    -2.0000     0.1930 ca         1 965      -0.080300
     17 C23         -1.6040    -2.0490     1.5490 ca         1 965      -0.047000
     18 C22         -2.5340    -2.4160     2.5290 ca         1 965      -0.118000
     19 C21         -3.8510    -2.7290     2.1690 ca         1 965      -0.062000
     20 C20         -4.2590    -2.6820     0.8150 ca         1 965      -0.200300
     21 C19         -3.3090    -2.3150    -0.1760 ca         1 965       0.157000
     22 Cl4         -3.7900    -2.2260    -1.8800 cl         1 965      -0.191000
     23 C39         -5.7140    -3.0140     0.4390 c3         1 965       0.363300
     24 F41         -6.4730    -3.3480     1.5080 f          1 965      -0.112333
     25 F40         -6.3330    -1.9660    -0.1510 f          1 965      -0.112333
     26 F42         -5.7880    -4.0590    -0.4170 f          1 965      -0.112333
     27 C08         -1.6620     0.7990    -0.9280 c3         1 965       0.184800
     28 C07         -1.6500     2.0970    -0.0740 c3         1 965       0.026900
     29 C01         -2.6660     3.1530    -0.5350 ca         1 965      -0.067300
     30 C02         -2.3750     4.5160    -0.3210 ca         1 965      -0.103000
     31 C03         -3.2800     5.5150    -0.7200 ca         1 965      -0.112250
     32 C04         -4.4910     5.1610    -1.3350 ca         1 965      -0.115000
     33 C05         -4.7970     3.8070    -1.5470 ca         1 965      -0.112250
     34 C06         -3.8930     2.8070    -1.1490 ca         1 965      -0.103000
     35 C10         -1.8480     1.7780     1.4110 ca         1 965      -0.067300
     36 C15         -3.0480     1.1900     1.8680 ca         1 965      -0.103000
     37 C14         -3.2200     0.8860     3.2290 ca         1 965      -0.112250
     38 C13         -2.1950     1.1650     4.1470 ca         1 965      -0.115000
     39 C12         -0.9980     1.7510     3.7030 ca         1 965      -0.112250
     40 C11         -0.8260     2.0570     2.3420 ca         1 965      -0.103000
     41 C33          6.7220    -1.0030    -0.5060 ca         1 965      -0.132000
     42 H341        10.0230    -1.6050    -0.8330 hc         1 965       0.033200
     43 H342         8.7570    -2.5720     0.0610 hc         1 965       0.033200
     44 H31          9.4450     0.4620    -1.9620 ha         1 965       0.108000
     45 H30          7.6540     1.7940    -3.0500 ha         1 965       0.087000
     46 H29          5.2800     1.3580    -2.5310 ha         1 965       0.090000
     47 H261         3.3430     1.2320    -1.1200 h1         1 965       0.024200
     48 H262         3.2720     0.0430    -2.4500 h1         1 965       0.024200
     49 H251         1.9730    -1.5020    -0.9820 hc         1 965       0.061700
     50 H252         2.0190    -0.3130     0.3270 hc         1 965       0.061700
     51 H171         0.8800     1.3380    -1.2140 h1         1 965       0.031200
     52 H172         0.6560     0.0490    -2.3930 h1         1 965       0.031200
     53 H161        -1.2390    -1.7420    -1.8520 h1         1 965       0.054200
     54 H162        -0.0480    -2.2160    -0.6590 h1         1 965       0.054200
     55 H23         -0.5890    -1.7870     1.8410 ha         1 965       0.157000
     56 H22         -2.2350    -2.4450     3.5750 ha         1 965       0.126000
     57 H21         -4.5500    -3.0030     2.9560 ha         1 965       0.130000
     58 H081        -1.6510     1.0720    -1.9920 h1         1 965       0.036700
     59 H082        -2.6220     0.3010    -0.7490 h1         1 965       0.036700
     60 H07         -0.6570     2.5410    -0.2040 hc         1 965       0.062700
     61 H02         -1.4420     4.8040     0.1600 ha         1 965       0.114250
     62 H03         -3.0420     6.5630    -0.5500 ha         1 965       0.112500
     63 H04         -5.1920     5.9330    -1.6430 ha         1 965       0.109500
     64 H05         -5.7380     3.5310    -2.0190 ha         1 965       0.112500
     65 H06         -4.1620     1.7680    -1.3170 ha         1 965       0.114250
     66 H15         -3.8480     0.9630     1.1680 ha         1 965       0.114250
     67 H14         -4.1460     0.4280     3.5690 ha         1 965       0.112500
     68 H13         -2.3270     0.9260     5.2000 ha         1 965       0.109500
     69 H12         -0.2030     1.9670     4.4130 ha         1 965       0.112500
     70 H111         0.1080     2.5050     2.0100 ha         1 965       0.114250
     71 H33          6.4560    -1.7810     0.2040 ha         1 965       0.125000
@<TRIPOS>BOND
     1     1     2 1   
     2     2     3 1   
     3     2     4 1   
     4     4     5 1   
     5     4    42 1   
     6     4    43 1   
     7     5     6 ar  
     8     5    41 ar  
     9     6     7 ar  
    10     6    44 1   
    11     7     8 ar  
    12     7    45 1   
    13     8     9 ar  
    14     8    46 1   
    15     9    10 1   
    16     9    41 ar  
    17    10    11 1   
    18    11    12 1   
    19    11    47 1   
    20    11    48 1   
    21    12    13 1   
    22    12    49 1   
    23    12    50 1   
    24    13    14 1   
    25    13    51 1   
    26    13    52 1   
    27    14    15 1   
    28    14    27 1   
    29    15    16 1   
    30    15    53 1   
    31    15    54 1   
    32    16    17 ar  
    33    16    21 ar  
    34    17    18 ar  
    35    17    55 1   
    36    18    19 ar  
    37    18    56 1   
    38    19    20 ar  
    39    19    57 1   
    40    20    21 ar  
    41    20    23 1   
    42    21    22 1   
    43    23    24 1   
    44    23    25 1   
    45    23    26 1   
    46    27    28 1   
    47    27    58 1   
    48    27    59 1   
    49    28    29 1   
    50    28    35 1   
    51    28    60 1   
    52    29    30 ar  
    53    29    34 ar  
    54    30    31 ar  
    55    30    61 1   
    56    31    32 ar  
    57    31    62 1   
    58    32    33 ar  
    59    32    63 1   
    60    33    34 ar  
    61    33    64 1   
    62    34    65 1   
    63    35    36 ar  
    64    35    40 ar  
    65    36    37 ar  
    66    36    66 1   
    67    37    38 ar  
    68    37    67 1   
    69    38    39 ar  
    70    38    68 1   
    71    39    40 ar  
    72    39    69 1   
    73    40    70 1   
    74    41    71 1   
@<TRIPOS>SUBSTRUCTURE
     1 965         1 TEMP              0 ****  ****    0 ROOT
