@<TRIPOS>MOLECULE
967
   30    32     1     0     0
SMALL
abcg2


@<TRIPOS>ATOM
      1 N3           1.4030     1.7570    -0.6140 ns         1 967      -0.602300
      2 C4          -1.9780     0.5530    -0.3620 cc         1 967       0.580300
      3 C6           0.3250     1.1900     0.0380 c          1 967       0.690100
      4 C7           3.5700     0.0810     1.8630 cc         1 967      -0.013400
      5 C8           3.8170    -0.5360    -0.3840 ca         1 967       0.001200
      6 C13         -3.4090    -0.7850     0.6170 cd         1 967       0.347900
      7 C20          4.6650    -2.8290    -0.4100 ca         1 967      -0.068000
      8 C21          4.2190    -1.6440    -2.4690 ca         1 967      -0.094000
      9 C22          4.6460    -2.7920    -1.7900 ca         1 967      -0.106000
     10 C11         -4.2980     0.0060    -0.0290 cc         1 967      -0.207900
     11 C16          4.2450    -1.6970     0.2810 ca         1 967      -0.181000
     12 C19          3.8080    -0.5200    -1.7830 ca         1 967      -0.087000
     13 C2           3.4350     0.4690     0.5730 cd         1 967      -0.309300
     14 N10         -2.0980    -0.4700     0.4130 nd         1 967      -0.647000
     15 N9          -0.7880     1.1200    -0.7620 ns         1 967      -0.490400
     16 O14          3.6850     2.6180    -0.8930 o          1 967      -0.530000
     17 O15          2.6270     2.8050     1.3730 o          1 967      -0.530000
     18 O17          0.3870     0.8020     1.1770 o          1 967      -0.542100
     19 S1           2.8570     2.0590     0.1570 sy         1 967       1.227900
     20 S12          4.1730    -1.5140     2.0060 ss         1 967       0.136400
     21 S5          -3.4760     1.2360    -0.9150 ss         1 967      -0.031400
     22 BR18        -6.1440    -0.1330    -0.0510 br         1 967      -0.010100
     23 H1           1.3460     2.0710    -1.5760 hn         1 967       0.342500
     24 H3          -3.6700    -1.6270     1.2410 h4         1 967       0.058100
     25 H4           4.9960    -3.7110     0.1210 ha         1 967       0.123000
     26 H5           4.2140    -1.6370    -3.5510 ha         1 967       0.117000
     27 H6           4.9670    -3.6590    -2.3510 ha         1 967       0.117000
     28 H7           3.4920     0.3580    -2.3290 ha         1 967       0.123000
     29 H8          -0.7760     1.5930    -1.6550 hn         1 967       0.336500
     30 H2           3.3410     0.6530     2.7490 h4         1 967       0.248000
@<TRIPOS>BOND
     1     1     3 1   
     2     1    19 1   
     3     1    23 1   
     4     2    14 2   
     5     2    15 1   
     6     2    21 1   
     7     3    15 1   
     8     3    18 2   
     9     4    13 2   
    10     4    20 1   
    11     4    30 1   
    12     5    11 ar  
    13     5    12 ar  
    14     5    13 1   
    15     6    10 2   
    16     6    14 1   
    17     6    24 1   
    18     7     9 ar  
    19     7    11 ar  
    20     7    25 1   
    21     8     9 ar  
    22     8    12 ar  
    23     8    26 1   
    24     9    27 1   
    25    10    21 1   
    26    10    22 1   
    27    11    20 1   
    28    12    28 1   
    29    13    19 1   
    30    15    29 1   
    31    16    19 2   
    32    17    19 2   
@<TRIPOS>SUBSTRUCTURE
     1 967         1 TEMP              0 ****  ****    0 ROOT
