@<TRIPOS>MOLECULE
967
   30    32     1     0     0
SMALL
No Charge or Current Charge


@<TRIPOS>ATOM
      1 N3           1.3980     1.8030    -0.4270 ns         1 967      -0.602300
      2 C4          -1.9560     0.5430    -0.3100 cc         1 967       0.580300
      3 C6           0.3660     1.2210     0.2210 c          1 967       0.690100
      4 C7           3.6680     0.0510     1.9040 cc         1 967      -0.013400
      5 C8           3.8340    -0.5480    -0.3980 ca         1 967       0.001200
      6 C13         -3.5810    -0.4320     0.8560 cd         1 967       0.347900
      7 C20          4.6040    -2.8470    -0.5280 ca         1 967      -0.068000
      8 C21          4.1250    -1.5910    -2.5680 ca         1 967      -0.094000
      9 C22          4.5440    -2.7790    -1.9330 ca         1 967      -0.106000
     10 C11         -4.2240    -0.2790    -0.3490 cc         1 967      -0.207900
     11 C16          4.2420    -1.7150     0.2200 ca         1 967      -0.181000
     12 C19          3.7650    -0.4650    -1.8010 ca         1 967      -0.087000
     13 C2           3.5100     0.4680     0.5910 cd         1 967      -0.309300
     14 N10         -2.2760     0.0420     0.8740 nd         1 967      -0.647000
     15 N9          -0.7250     1.0870    -0.5920 ns         1 967      -0.490400
     16 O14          3.6870     2.6500    -0.9390 o          1 967      -0.530000
     17 O15          2.7380     2.8710     1.4290 o          1 967      -0.530000
     18 O17          0.4210     0.8650     1.3840 o          1 967      -0.542100
     19 S1           2.9210     2.1100     0.1880 sy         1 967       1.227900
     20 S12          4.2500    -1.6310     2.0030 ss         1 967       0.136400
     21 S5          -3.2060     0.4790    -1.5310 ss         1 967      -0.031400
     22 Br18        -5.9920    -0.8010    -0.7440 br         1 967      -0.010100
     23 H1           1.3300     2.0690    -1.3920 hn         1 967       0.342500
     24 H3          -4.0060    -0.8770     1.7490 h4         1 967       0.058100
     25 H4           4.9240    -3.7610    -0.0320 ha         1 967       0.123000
     26 H5           4.0790    -1.5450    -3.6540 ha         1 967       0.117000
     27 H6           4.8210    -3.6460    -2.5300 ha         1 967       0.117000
     28 H7           3.4410     0.4420    -2.3020 ha         1 967       0.123000
     29 H8          -0.6040     1.4360    -1.5280 hn         1 967       0.336500
     30 H2           3.4840     0.5960     2.8240 h4         1 967       0.248000
@<TRIPOS>BOND
     1     1     3 1   
     2     1    19 1   
     3     1    23 1   
     4     2    14 2   
     5     2    15 1   
     6     2    21 1   
     7     3    15 1   
     8     3    18 2   
     9     4    13 2   
    10     4    20 1   
    11     4    30 1   
    12     5    11 ar  
    13     5    12 ar  
    14     5    13 1   
    15     6    10 2   
    16     6    14 1   
    17     6    24 1   
    18     7     9 ar  
    19     7    11 ar  
    20     7    25 1   
    21     8     9 ar  
    22     8    12 ar  
    23     8    26 1   
    24     9    27 1   
    25    10    21 1   
    26    10    22 1   
    27    11    20 1   
    28    12    28 1   
    29    13    19 1   
    30    15    29 1   
    31    16    19 2   
    32    17    19 2   
@<TRIPOS>SUBSTRUCTURE
     1 967         1 TEMP              0 ****  ****    0 ROOT
