@<TRIPOS>MOLECULE
968
   37    39     1     0     0
SMALL
bcc


@<TRIPOS>ATOM
      1 O21         -1.8690     2.6140     1.1190 o          1 968      -0.806300
      2 C20         -1.9890     1.5880     0.4310 c          1 968       0.885600
      3 O22         -2.8890     0.7380     0.4420 o          1 968      -0.806300
      4 C18         -0.8960     1.4010    -0.6370 c          1 968       0.558100
      5 O23         -0.7280     2.2420    -1.5040 o          1 968      -0.598100
      6 N17         -0.1300     0.2760    -0.5690 n          1 968      -0.320200
      7 C19          0.8510     0.0120    -1.5660 ca         1 968       0.082600
      8 C24          2.1710    -0.1420    -1.1500 ca         1 968      -0.170000
      9 C25          3.1770    -0.4040    -2.0670 ca         1 968      -0.168000
     10 C26          2.8670    -0.4760    -3.4180 ca         1 968      -0.182000
     11 C27          1.5550    -0.2930    -3.8300 ca         1 968      -0.117000
     12 C28          0.5210    -0.0760    -2.9200 ca         1 968      -0.102600
     13 C33         -0.9010     0.0080    -3.4560 c          1 968       0.937200
     14 O34         -1.7720    -0.6240    -2.8320 o          1 968      -0.821300
     15 O35         -1.0520     0.6600    -4.5060 o          1 968      -0.821300
     16 C13         -0.3020    -0.7030     0.4470 ca         1 968       0.140600
     17 C12         -0.8520    -1.9120     0.1160 ca         1 968      -0.112000
     18 C11         -1.0020    -2.9250     1.0800 ca         1 968      -0.113000
     19 C10         -0.6040    -2.7060     2.3710 ca         1 968      -0.164000
     20 C3          -0.0200    -1.4750     2.7410 ca         1 968      -0.056000
     21 C2           0.4250    -1.2350     4.0610 ca         1 968      -0.107000
     22 C1           1.0220    -0.0570     4.4060 ca         1 968      -0.216000
     23 C6           1.2060     0.9530     3.4330 ca         1 968       0.086100
     24 O36          1.8060     2.1190     3.7420 oh         1 968      -0.497100
     25 C5           0.7720     0.7610     2.1460 ca         1 968      -0.091000
     26 C4           0.1520    -0.4500     1.7700 ca         1 968      -0.002000
     27 H24          2.4130    -0.0540    -0.0980 ha         1 968       0.114000
     28 H25          4.1960    -0.5340    -1.7280 ha         1 968       0.088000
     29 H26          3.6430    -0.6660    -4.1480 ha         1 968       0.086000
     30 H27          1.3210    -0.3380    -4.8860 ha         1 968       0.127000
     31 H12         -1.1880    -2.0620    -0.9020 ha         1 968       0.191000
     32 H11         -1.4450    -3.8700     0.7950 ha         1 968       0.108000
     33 H10         -0.7230    -3.4770     3.1230 ha         1 968       0.097000
     34 H2           0.2920    -2.0070     4.8090 ha         1 968       0.102000
     35 H1           1.3590     0.1050     5.4240 ha         1 968       0.098000
     36 H36          2.0780     2.1240     4.6670 ho         1 968       0.396000
     37 H5           0.9190     1.5490     1.4190 ha         1 968       0.178000
@<TRIPOS>BOND
     1     1     2 1   
     2     2     3 1   
     3     2     4 1   
     4     4     5 2   
     5     4     6 1   
     6     6     7 1   
     7     6    16 1   
     8     7     8 ar  
     9     7    12 ar  
    10     8     9 ar  
    11     8    27 1   
    12     9    10 ar  
    13     9    28 1   
    14    10    11 ar  
    15    10    29 1   
    16    11    12 ar  
    17    11    30 1   
    18    12    13 1   
    19    13    14 1   
    20    13    15 1   
    21    16    17 ar  
    22    16    26 ar  
    23    17    18 ar  
    24    17    31 1   
    25    18    19 ar  
    26    18    32 1   
    27    19    20 ar  
    28    19    33 1   
    29    20    21 ar  
    30    20    26 ar  
    31    21    22 ar  
    32    21    34 1   
    33    22    23 ar  
    34    22    35 1   
    35    23    24 1   
    36    23    25 ar  
    37    24    36 1   
    38    25    26 ar  
    39    25    37 1   
@<TRIPOS>SUBSTRUCTURE
     1 968         1 TEMP              0 ****  ****    0 ROOT
