@<TRIPOS>MOLECULE
968
   37    39     1     0     0
SMALL
No Charge or Current Charge


@<TRIPOS>ATOM
      1 O21         -2.0530     2.5890     1.2300 o          1 968      -0.701000
      2 C20         -1.9670     1.5730     0.5410 c          1 968       0.675000
      3 O22         -2.8010     0.6700     0.5820 o          1 968      -0.701000
      4 C18         -0.7450     1.4660    -0.5250 c          1 968       0.491100
      5 O23         -0.4460     2.4250    -1.2480 o          1 968      -0.598100
      6 N17         -0.0150     0.2440    -0.5820 n          1 968      -0.068000
      7 C19          0.8590    -0.1020    -1.6890 ca         1 968      -0.010000
      8 C24          2.1150    -0.6820    -1.3880 ca         1 968      -0.152000
      9 C25          3.0300    -1.0010    -2.4010 ca         1 968      -0.150000
     10 C26          2.7030    -0.7570    -3.7390 ca         1 968      -0.164000
     11 C27          1.4530    -0.2110    -4.0640 ca         1 968      -0.099000
     12 C28          0.5130     0.1130    -3.0580 ca         1 968      -0.102600
     13 C33         -0.8630     0.5760    -3.4980 c          1 968       0.726600
     14 O34         -1.8420     0.0420    -2.9930 o          1 968      -0.716000
     15 O35         -0.9400     1.3640    -4.4320 o          1 968      -0.716000
     16 C13         -0.0740    -0.7290     0.4850 ca         1 968       0.048000
     17 C12         -0.3970    -2.0600     0.1410 ca         1 968      -0.094000
     18 C11         -0.5230    -3.0480     1.1280 ca         1 968      -0.095000
     19 C10         -0.3160    -2.7230     2.4740 ca         1 968      -0.146000
     20 C3           0.0490    -1.4150     2.8370 ca         1 968      -0.056000
     21 C2           0.2960    -1.1230     4.1920 ca         1 968      -0.089000
     22 C1           0.7110     0.1610     4.5750 ca         1 968      -0.198000
     23 C6           0.8940     1.1510     3.6020 ca         1 968       0.086100
     24 O36          1.3300     2.3880     3.9730 oh         1 968      -0.536100
     25 C5           0.6430     0.8720     2.2490 ca         1 968      -0.073000
     26 C4           0.1880    -0.4080     1.8480 ca         1 968      -0.002000
     27 H24          2.4050    -0.8590    -0.3550 ha         1 968       0.096000
     28 H25          3.9950    -1.4320    -2.1470 ha         1 968       0.070000
     29 H26          3.4100    -1.0050    -4.5270 ha         1 968       0.068000
     30 H27          1.1990    -0.0610    -5.1110 ha         1 968       0.109000
     31 H12         -0.5830    -2.3210    -0.8990 ha         1 968       0.173000
     32 H11         -0.7910    -4.0640     0.8480 ha         1 968       0.090000
     33 H10         -0.4190    -3.4950     3.2330 ha         1 968       0.079000
     34 H2           0.1790    -1.8960     4.9480 ha         1 968       0.084000
     35 H1           0.9050     0.3720     5.6240 ha         1 968       0.080000
     36 H36          1.4500     2.3940     4.9460 ho         1 968       0.435000
     37 H5           0.8300     1.6590     1.5260 ha         1 968       0.160000
@<TRIPOS>BOND
     1     1     2 1   
     2     2     3 1   
     3     2     4 1   
     4     4     5 2   
     5     4     6 1   
     6     6     7 1   
     7     6    16 1   
     8     7     8 ar  
     9     7    12 ar  
    10     8     9 ar  
    11     8    27 1   
    12     9    10 ar  
    13     9    28 1   
    14    10    11 ar  
    15    10    29 1   
    16    11    12 ar  
    17    11    30 1   
    18    12    13 1   
    19    13    14 1   
    20    13    15 1   
    21    16    17 ar  
    22    16    26 ar  
    23    17    18 ar  
    24    17    31 1   
    25    18    19 ar  
    26    18    32 1   
    27    19    20 ar  
    28    19    33 1   
    29    20    21 ar  
    30    20    26 ar  
    31    21    22 ar  
    32    21    34 1   
    33    22    23 ar  
    34    22    35 1   
    35    23    24 1   
    36    23    25 ar  
    37    24    36 1   
    38    25    26 ar  
    39    25    37 1   
@<TRIPOS>SUBSTRUCTURE
     1 968         1 TEMP              0 ****  ****    0 ROOT
