@<TRIPOS>MOLECULE
96A
   46    47     1     0     0
SMALL
No Charge or Current Charge


@<TRIPOS>ATOM
      1 N3           0.5590     2.8280     0.0440 ns         1 96A      -0.599300
      2 C5          -0.1540     1.8490     0.6440 c          1 96A       0.689100
      3 C6          -2.4630     0.8960     0.4720 ca         1 96A       0.534900
      4 C7          -3.0680    -1.2950     0.8260 ca         1 96A       0.546900
      5 C8           3.2880     1.5680    -1.6570 cc         1 96A       0.010000
      6 C10          4.1450    -0.3610    -0.6940 cd         1 96A      -0.194300
      7 N12         -2.6400    -2.6090     1.0390 ns         1 96A      -0.347900
      8 C13          3.9530     0.3310    -1.8690 cc         1 96A      -0.127300
      9 C15         -3.7950     1.3260     0.5210 ca         1 96A      -0.226000
     10 C28          8.2550    -2.9580     0.2070 c3         1 96A       0.146900
     11 C14         -1.6330    -3.3110     0.4360 c          1 96A       0.664100
     12 C16         -4.4210    -0.9540     0.9550 ca         1 96A      -0.229000
     13 C19         -4.7960     0.3840     0.7840 ca         1 96A       0.070100
     14 C2           2.9810     1.8140    -0.3450 cd         1 96A      -0.507500
     15 C25          4.3710    -0.1100    -3.2480 c3         1 96A      -0.026800
     16 C27          6.3140    -1.5850    -0.2290 c3         1 96A       0.159600
     17 N11         -1.4340     1.7890     0.1610 ns         1 96A      -0.333900
     18 N22         -1.4810    -4.5480     0.9400 nt         1 96A      -0.619000
     19 N9          -2.0960    -0.3920     0.6030 nb         1 96A      -0.692000
     20 O20          0.2880     1.1270     1.5220 o          1 96A      -0.543100
     21 O21         -0.9360    -2.9140    -0.4810 o          1 96A      -0.572100
     22 O26          6.8440    -2.9110    -0.0640 os         1 96A      -0.456000
     23 S1           2.1570     3.2240     0.3030 sy         1 96A       1.245300
     24 S4           3.5010     0.5150     0.7150 ss         1 96A       0.432000
     25 Br24        -6.6290     0.9100     0.9070 br         1 96A      -0.076100
     26 H1           0.1570     3.3760    -0.6940 hn         1 96A       0.340500
     27 H2           3.0520     2.2460    -2.4760 ha         1 96A       0.145000
     28 H3          -3.1690    -3.1100     1.7370 hn         1 96A       0.155000
     29 H4          -4.0400     2.3730     0.3740 ha         1 96A       0.141000
     30 H5           8.8250    -2.5050    -0.6140 h1         1 96A       0.029700
     31 H6           8.4920    -2.4210     1.1350 h1         1 96A       0.029700
     32 H7           8.5870    -3.9980     0.3210 h1         1 96A       0.029700
     33 H8          -5.1620    -1.7180     1.1690 ha         1 96A       0.139000
     34 H9           4.3320    -2.2500     0.3120 hc         1 96A       0.069200
     35 H10          4.6620    -2.3240    -1.4100 hc         1 96A       0.069200
     36 H11          3.7700    -0.9650    -3.5800 hc         1 96A       0.043367
     37 H12          4.2480     0.6940    -3.9830 hc         1 96A       0.043367
     38 H13          5.4250    -0.4130    -3.2590 hc         1 96A       0.043367
     39 H14          6.8040    -1.0710    -1.0670 h1         1 96A       0.026700
     40 H15          6.4680    -0.9890     0.6810 h1         1 96A       0.026700
     41 H16         -1.6870     2.4960    -0.5140 hn         1 96A       0.164000
     42 H17         -2.0670    -4.8660     1.6970 hn         1 96A       0.316500
     43 H18         -0.7670    -5.1490     0.5560 hn         1 96A       0.316500
     44 C23          4.8060    -1.7080    -0.5150 c3         1 96A      -0.020100
     45 O17          2.4200     4.3730    -0.5690 o          1 96A      -0.528500
     46 O18          2.3650     3.2820     1.7530 o          1 96A      -0.528500
@<TRIPOS>BOND
     1     1     2 1   
     2     1    23 1   
     3     1    26 1   
     4     2    17 1   
     5     2    20 2   
     6     3     9 ar  
     7     3    17 1   
     8     3    19 ar  
     9     4     7 1   
    10     4    12 ar  
    11     4    19 ar  
    12     5     8 1   
    13     5    14 2   
    14     5    27 1   
    15     6     8 2   
    16     6    24 1   
    17     6    44 1   
    18     7    11 1   
    19     7    28 1   
    20     8    15 1   
    21     9    13 ar  
    22     9    29 1   
    23    10    22 1   
    24    10    30 1   
    25    10    31 1   
    26    10    32 1   
    27    11    18 1   
    28    11    21 2   
    29    12    13 ar  
    30    12    33 1   
    31    13    25 1   
    32    14    23 1   
    33    14    24 1   
    34    15    36 1   
    35    15    37 1   
    36    15    38 1   
    37    16    22 1   
    38    16    39 1   
    39    16    40 1   
    40    16    44 1   
    41    17    41 1   
    42    18    42 1   
    43    18    43 1   
    44    23    45 2   
    45    23    46 2   
    46    34    44 1   
    47    35    44 1   
@<TRIPOS>SUBSTRUCTURE
     1 96A         1 TEMP              0 ****  ****    0 ROOT
