@<TRIPOS>MOLECULE
96A
   46    47     1     0     0
SMALL
abcg2


@<TRIPOS>ATOM
      1 N3           0.4800     2.8610    -0.0700 ns         1 96A      -0.599300
      2 C5          -0.2260     1.8230     0.5240 c          1 96A       0.689100
      3 C6          -2.4930     0.8740     0.4920 ca         1 96A       0.534900
      4 C7          -2.9840    -1.2990     0.9220 ca         1 96A       0.546900
      5 C8           3.4530     1.6680    -1.7310 cc         1 96A       0.010000
      6 C10          4.0290    -0.4100    -0.9040 cd         1 96A      -0.194300
      7 N12         -2.5610    -2.5960     1.1320 ns         1 96A      -0.347900
      8 C13          4.0910     0.4310    -1.9890 cc         1 96A      -0.127300
      9 C15         -3.8230     1.2780     0.6020 ca         1 96A      -0.226000
     10 C28          7.8940    -3.0190     0.3220 c3         1 96A       0.146900
     11 C14         -1.4260    -3.1990     0.6040 c          1 96A       0.664100
     12 C16         -4.3510    -1.0280     1.0460 ca         1 96A      -0.229000
     13 C19         -4.7440     0.2840     0.8810 ca         1 96A       0.070100
     14 C2           2.9300     1.7320    -0.4700 cd         1 96A      -0.507500
     15 C25          4.7570     0.0830    -3.2830 c3         1 96A      -0.026800
     16 C27          6.0550    -1.6910    -0.2390 c3         1 96A       0.159600
     17 N11         -1.5460     1.8410     0.1680 ns         1 96A      -0.333900
     18 N22         -1.2230    -4.4400     1.1060 nt         1 96A      -0.619000
     19 N9          -2.0840    -0.3700     0.6480 nb         1 96A      -0.692000
     20 O20          0.3020     1.0360     1.2700 o          1 96A      -0.543100
     21 O21         -0.7230    -2.6920    -0.2460 o          1 96A      -0.572100
     22 O26          6.5850    -2.9890    -0.1890 os         1 96A      -0.456000
     23 S1           2.1100     3.1010     0.2100 sy         1 96A       1.245300
     24 S4           3.2000     0.2940     0.4200 ss         1 96A       0.432000
     25 BR24        -6.5620     0.7320     1.0390 br         1 96A      -0.076100
     26 H1           0.1120     3.3420    -0.8830 hn         1 96A       0.340500
     27 H2           3.3940     2.4740    -2.4490 ha         1 96A       0.145000
     28 H3          -3.2310    -3.2020     1.5800 hn         1 96A       0.155000
     29 H4          -4.1070     2.3140     0.4860 ha         1 96A       0.141000
     30 H5           8.5880    -2.4320    -0.2900 h1         1 96A       0.029700
     31 H6           7.9430    -2.6380     1.3480 h1         1 96A       0.029700
     32 H7           8.2290    -4.0560     0.3240 h1         1 96A       0.029700
     33 H8          -5.0590    -1.8210     1.2480 ha         1 96A       0.139000
     34 H9           4.0280    -2.4070    -0.1320 hc         1 96A       0.069200
     35 H10          4.6450    -2.2400    -1.7680 hc         1 96A       0.069200
     36 H11          4.3010    -0.7940    -3.7450 hc         1 96A       0.043367
     37 H12          4.6810     0.9050    -3.9920 hc         1 96A       0.043367
     38 H13          5.8160    -0.1370    -3.1450 hc         1 96A       0.043367
     39 H14          6.6640    -1.0400    -0.8830 h1         1 96A       0.026700
     40 H15          6.0440    -1.2290     0.7580 h1         1 96A       0.026700
     41 H16         -1.9080     2.6930    -0.2320 hn         1 96A       0.164000
     42 H17         -1.6530    -4.7430     1.9630 hn         1 96A       0.316500
     43 H18         -0.3840    -4.9240     0.8330 hn         1 96A       0.316500
     44 C23          4.6320    -1.7700    -0.7820 c3         1 96A      -0.020100
     45 O17          2.4260     4.2660    -0.5920 o          1 96A      -0.528500
     46 O18          2.3290     3.0990     1.6390 o          1 96A      -0.528500
@<TRIPOS>BOND
     1     1     2 1   
     2     1    23 1   
     3     1    26 1   
     4     2    17 1   
     5     2    20 2   
     6     3     9 ar  
     7     3    17 1   
     8     3    19 ar  
     9     4     7 1   
    10     4    12 ar  
    11     4    19 ar  
    12     5     8 1   
    13     5    14 2   
    14     5    27 1   
    15     6     8 2   
    16     6    24 1   
    17     6    44 1   
    18     7    11 1   
    19     7    28 1   
    20     8    15 1   
    21     9    13 ar  
    22     9    29 1   
    23    10    22 1   
    24    10    30 1   
    25    10    31 1   
    26    10    32 1   
    27    11    18 1   
    28    11    21 2   
    29    12    13 ar  
    30    12    33 1   
    31    13    25 1   
    32    14    23 1   
    33    14    24 1   
    34    15    36 1   
    35    15    37 1   
    36    15    38 1   
    37    16    22 1   
    38    16    39 1   
    39    16    40 1   
    40    16    44 1   
    41    17    41 1   
    42    18    42 1   
    43    18    43 1   
    44    23    45 2   
    45    23    46 2   
    46    34    44 1   
    47    35    44 1   
@<TRIPOS>SUBSTRUCTURE
     1 96A         1 TEMP              0 ****  ****    0 ROOT
