@<TRIPOS>MOLECULE
96B
   24    25     1     0     0
SMALL
abcg2


@<TRIPOS>ATOM
      1 N           -1.7280     0.6430    -0.9680 n7         1 96B      -0.864400
      2 C3          -2.9120     0.8710    -0.1370 c5         1 96B       0.152800
      3 C           -3.0990    -0.4050     0.6790 c5         1 96B      -0.111400
      4 C1          -1.6530    -0.8130     0.9270 c5         1 96B      -0.090400
      5 C2          -0.9590    -0.4710    -0.4070 c5         1 96B       0.212800
      6 C4           0.5060    -0.1630    -0.2160 ca         1 96B      -0.073300
      7 C9           0.9500     1.1340     0.0300 ca         1 96B      -0.097500
      8 C5           1.4410    -1.1950    -0.2340 ca         1 96B      -0.097500
      9 C6           2.7870    -0.9430    -0.0030 ca         1 96B      -0.115500
     10 C7           3.2190     0.3530     0.2470 ca         1 96B      -0.111000
     11 C8           2.2940     1.3900     0.2630 ca         1 96B      -0.115500
     12 H1          -2.0070     0.4200    -1.9120 hn         1 96B       0.411000
     13 H3          -2.7440     1.7180     0.5370 h1         1 96B       0.047700
     14 H4          -3.7760     1.1210    -0.7540 h1         1 96B       0.047700
     15 H5          -3.6680    -0.2500     1.5970 hc         1 96B       0.048200
     16 H6          -3.6150    -1.1650     0.0860 hc         1 96B       0.048200
     17 H7          -1.2280    -0.2140     1.7380 hc         1 96B       0.054200
     18 H8          -1.5240    -1.8610     1.1950 hc         1 96B       0.054200
     19 H9          -1.0320    -1.3470    -1.0620 h1         1 96B       0.035700
     20 H10          0.2340     1.9460     0.0270 ha         1 96B       0.117000
     21 H11          1.1140    -2.2090    -0.4370 ha         1 96B       0.117000
     22 H12          3.5000    -1.7580    -0.0250 ha         1 96B       0.109500
     23 H13          4.2680     0.5540     0.4210 ha         1 96B       0.110000
     24 H14          2.6230     2.4040     0.4530 ha         1 96B       0.109500
@<TRIPOS>BOND
     1     1     2 1   
     2     1     5 1   
     3     1    12 1   
     4     2     3 1   
     5     2    13 1   
     6     2    14 1   
     7     3     4 1   
     8     3    15 1   
     9     3    16 1   
    10     4     5 1   
    11     4    17 1   
    12     4    18 1   
    13     5     6 1   
    14     5    19 1   
    15     6     7 ar  
    16     6     8 ar  
    17     7    11 ar  
    18     7    20 1   
    19     8     9 ar  
    20     8    21 1   
    21     9    10 ar  
    22     9    22 1   
    23    10    11 ar  
    24    10    23 1   
    25    11    24 1   
@<TRIPOS>SUBSTRUCTURE
     1 96B         1 TEMP              0 ****  ****    0 ROOT
