@<TRIPOS>MOLECULE
96B
   24    25     1     0     0
SMALL
No Charge or Current Charge


@<TRIPOS>ATOM
      1 N           -1.7750     0.4430    -1.1690 n7         1 96B      -0.864400
      2 C3          -2.7830     0.9410    -0.2020 c5         1 96B       0.152800
      3 C           -3.0960    -0.3030     0.6560 c5         1 96B      -0.111400
      4 C1          -1.6510    -0.7610     0.9550 c5         1 96B      -0.090400
      5 C2          -0.9850    -0.5960    -0.4460 c5         1 96B       0.212800
      6 C4           0.4820    -0.2270    -0.1990 ca         1 96B      -0.073300
      7 C9           0.8650     1.0780     0.1830 ca         1 96B      -0.097500
      8 C5           1.4840    -1.2100    -0.3450 ca         1 96B      -0.097500
      9 C6           2.8360    -0.8970    -0.1160 ca         1 96B      -0.115500
     10 C7           3.2030     0.4040     0.2630 ca         1 96B      -0.111000
     11 C8           2.2160     1.3920     0.4120 ca         1 96B      -0.115500
     12 H1          -2.2760    -0.0330    -1.9280 hn         1 96B       0.411000
     13 H3          -2.3610     1.7440     0.4190 h1         1 96B       0.047700
     14 H4          -3.6750     1.3400    -0.7070 h1         1 96B       0.047700
     15 H5          -3.6610    -0.0590     1.5620 hc         1 96B       0.048200
     16 H6          -3.6620    -1.0560     0.0950 hc         1 96B       0.048200
     17 H7          -1.1890    -0.1210     1.7160 hc         1 96B       0.054200
     18 H8          -1.6000    -1.7920     1.3220 hc         1 96B       0.054200
     19 H9          -1.0470    -1.5400    -1.0070 h1         1 96B       0.035700
     20 H10          0.1110     1.8530     0.3030 ha         1 96B       0.117000
     21 H11          1.2130    -2.2220    -0.6360 ha         1 96B       0.117000
     22 H12          3.5980    -1.6640    -0.2320 ha         1 96B       0.109500
     23 H13          4.2480     0.6470     0.4400 ha         1 96B       0.110000
     24 H14          2.4970     2.4010     0.7060 ha         1 96B       0.109500
@<TRIPOS>BOND
     1     1     2 1   
     2     1     5 1   
     3     1    12 1   
     4     2     3 1   
     5     2    13 1   
     6     2    14 1   
     7     3     4 1   
     8     3    15 1   
     9     3    16 1   
    10     4     5 1   
    11     4    17 1   
    12     4    18 1   
    13     5     6 1   
    14     5    19 1   
    15     6     7 ar  
    16     6     8 ar  
    17     7    11 ar  
    18     7    20 1   
    19     8     9 ar  
    20     8    21 1   
    21     9    10 ar  
    22     9    22 1   
    23    10    11 ar  
    24    10    23 1   
    25    11    24 1   
@<TRIPOS>SUBSTRUCTURE
     1 96B         1 TEMP              0 ****  ****    0 ROOT
