@<TRIPOS>MOLECULE
96C
   51    53     1     0     0
SMALL
No Charge or Current Charge


@<TRIPOS>ATOM
      1 C01          7.2760     1.8200    -0.7010 c3         1 96C      -0.095100
      2 C02          6.3120     0.7440    -0.1760 c3         1 96C       0.164600
      3 O03          5.0310     0.9750    -0.7870 os         1 96C      -0.349100
      4 C04          3.9370     0.1780    -0.5210 ca         1 96C       0.144100
      5 C05          3.9910    -0.9240     0.3580 ca         1 96C      -0.177000
      6 C06          2.8400    -1.6990     0.5900 ca         1 96C      -0.065000
      7 C07          1.6160    -1.3810    -0.0370 ca         1 96C      -0.037000
      8 C08          0.4190    -2.2030     0.2050 cc         1 96C      -0.133000
      9 C09          0.5590    -3.5500     0.3680 cd         1 96C      -0.166000
     10 N10         -0.7420    -4.0480     0.3390 na         1 96C       0.139800
     11 C11         -1.1400    -5.4560     0.4710 c3         1 96C       0.073900
     12 N12         -1.6910    -3.0590     0.1420 nd         1 96C      -0.518800
     13 C13         -0.9730    -1.9510     0.0500 cc         1 96C       0.311500
     14 C14         -1.6330    -0.6270    -0.0210 ca         1 96C      -0.047500
     15 C15         -1.0210     0.5270     0.5080 ca         1 96C      -0.206500
     16 C16         -1.6510     1.7920     0.4740 ca         1 96C       0.150600
     17 O17         -0.9960     2.9060     0.9750 os         1 96C      -0.325600
     18 C18          0.3610     2.8750     1.4530 c3         1 96C       0.144900
     19 C19         -2.9670     1.9020    -0.0690 ca         1 96C       0.028100
     20 O20         -3.6950     3.0910    -0.1580 os         1 96C      -0.328100
     21 C21         -3.2180     4.3850     0.2520 c3         1 96C       0.148900
     22 C22         -3.6090     0.7350    -0.5470 ca         1 96C       0.150600
     23 O23         -4.8960     0.8550    -1.0510 os         1 96C      -0.325600
     24 C24         -5.6410    -0.2650    -1.5610 c3         1 96C       0.144900
     25 C25         -2.9490    -0.5120    -0.5100 ca         1 96C      -0.206500
     26 C26          1.5810    -0.2920    -0.9340 ca         1 96C      -0.065000
     27 C27          2.7300     0.4830    -1.1660 ca         1 96C      -0.177000
     28 H1           7.3710     1.7550    -1.7910 hc         1 96C       0.047033
     29 H2           6.9180     2.8220    -0.4370 hc         1 96C       0.047033
     30 H3           8.2710     1.6840    -0.2600 hc         1 96C       0.047033
     31 H4           6.6960    -0.2500    -0.4390 h1         1 96C       0.032700
     32 H5           6.2410     0.8190     0.9170 h1         1 96C       0.032700
     33 H6           4.9100    -1.1930     0.8700 ha         1 96C       0.121500
     34 H7           2.9000    -2.5360     1.2810 ha         1 96C       0.117000
     35 H8           1.4340    -4.1830     0.4470 h4         1 96C       0.155000
     36 H9          -1.9070    -5.5500     1.2490 h1         1 96C       0.057033
     37 H10         -1.5430    -5.8130    -0.4840 h1         1 96C       0.057033
     38 H11         -0.2690    -6.0630     0.7470 h1         1 96C       0.057033
     39 H12         -0.0500     0.4210     0.9760 ha         1 96C       0.131500
     40 H13          0.4560     2.2100     2.3210 h1         1 96C       0.041700
     41 H14          1.0450     2.5300     0.6660 h1         1 96C       0.041700
     42 H15          0.6770     3.8790     1.7610 h1         1 96C       0.041700
     43 H16         -2.3160     4.6650    -0.3060 h1         1 96C       0.032367
     44 H17         -3.9830     5.1460     0.0550 h1         1 96C       0.032367
     45 H18         -3.0000     4.4010     1.3270 h1         1 96C       0.032367
     46 H19         -5.1220    -0.7250    -2.4110 h1         1 96C       0.041700
     47 H20         -5.7860    -1.0240    -0.7810 h1         1 96C       0.041700
     48 H21         -6.6300     0.0620    -1.9040 h1         1 96C       0.041700
     49 H22         -3.4440    -1.4040    -0.8800 ha         1 96C       0.131500
     50 H23          0.6680    -0.0530    -1.4720 ha         1 96C       0.117000
     51 H24          2.6860     1.3210    -1.8560 ha         1 96C       0.121500
@<TRIPOS>BOND
     1     1     2 1   
     2     1    28 1   
     3     1    29 1   
     4     1    30 1   
     5     2     3 1   
     6     2    31 1   
     7     2    32 1   
     8     3     4 1   
     9     4     5 ar  
    10     4    27 ar  
    11     5     6 ar  
    12     5    33 1   
    13     6     7 ar  
    14     6    34 1   
    15     7     8 1   
    16     7    26 ar  
    17     8     9 2   
    18     8    13 1   
    19     9    10 1   
    20     9    35 1   
    21    10    11 1   
    22    10    12 1   
    23    11    36 1   
    24    11    37 1   
    25    11    38 1   
    26    12    13 2   
    27    13    14 1   
    28    14    15 ar  
    29    14    25 ar  
    30    15    16 ar  
    31    15    39 1   
    32    16    17 1   
    33    16    19 ar  
    34    17    18 1   
    35    18    40 1   
    36    18    41 1   
    37    18    42 1   
    38    19    20 1   
    39    19    22 ar  
    40    20    21 1   
    41    21    43 1   
    42    21    44 1   
    43    21    45 1   
    44    22    23 1   
    45    22    25 ar  
    46    23    24 1   
    47    24    46 1   
    48    24    47 1   
    49    24    48 1   
    50    25    49 1   
    51    26    27 ar  
    52    26    50 1   
    53    27    51 1   
@<TRIPOS>SUBSTRUCTURE
     1 96C         1 TEMP              0 ****  ****    0 ROOT
