@<TRIPOS>MOLECULE
96C
   51    53     1     0     0
SMALL
abcg2


@<TRIPOS>ATOM
      1 C01          7.1020     1.9530    -0.5980 c3         1 96C      -0.095100
      2 C02          6.1280     0.8990    -0.1260 c3         1 96C       0.164600
      3 O03          4.8960     1.1010    -0.8040 os         1 96C      -0.349100
      4 C04          3.8720     0.2630    -0.5540 ca         1 96C       0.144100
      5 C05          3.9230    -0.8010     0.3420 ca         1 96C      -0.177000
      6 C06          2.8030    -1.6040     0.5240 ca         1 96C      -0.065000
      7 C07          1.6200    -1.3820    -0.1730 ca         1 96C      -0.037000
      8 C08          0.4580    -2.2570     0.0160 cc         1 96C      -0.133000
      9 C09          0.4740    -3.6370     0.0460 cd         1 96C      -0.166000
     10 N10         -0.7960    -4.0470     0.1890 na         1 96C       0.139800
     11 C11         -1.2740    -5.4040     0.2950 c3         1 96C       0.073900
     12 N12         -1.6470    -3.0350     0.2630 nd         1 96C      -0.518800
     13 C13         -0.9140    -1.9340     0.1620 cc         1 96C       0.311500
     14 C14         -1.5590    -0.6170     0.2270 ca         1 96C      -0.047500
     15 C15         -0.9140     0.4440     0.8540 ca         1 96C      -0.206500
     16 C16         -1.5300     1.6900     0.9190 ca         1 96C       0.150600
     17 O17         -0.9820     2.7760     1.4930 os         1 96C      -0.325600
     18 C18          0.3340     2.6760     1.9990 c3         1 96C       0.144900
     19 C19         -2.8050     1.8700     0.3770 ca         1 96C       0.028100
     20 O20         -3.4190     3.0790     0.4690 os         1 96C      -0.328100
     21 C21         -3.1670     3.9460    -0.6290 c3         1 96C       0.148900
     22 C22         -3.4500     0.7980    -0.2460 ca         1 96C       0.150600
     23 O23         -4.6690     1.0670    -0.7470 os         1 96C      -0.325600
     24 C24         -5.3630     0.0330    -1.4160 c3         1 96C       0.144900
     25 C25         -2.8280    -0.4450    -0.3200 ca         1 96C      -0.206500
     26 C26          1.5900    -0.3140    -1.0750 ca         1 96C      -0.065000
     27 C27          2.6900     0.4990    -1.2600 ca         1 96C      -0.177000
     28 H1           7.2730     1.8860    -1.6720 hc         1 96C       0.047033
     29 H2           6.7480     2.9570    -0.3630 hc         1 96C       0.047033
     30 H3           8.0590     1.8100    -0.0960 hc         1 96C       0.047033
     31 H4           6.5170    -0.1020    -0.3390 h1         1 96C       0.032700
     32 H5           5.9810     0.9730     0.9570 h1         1 96C       0.032700
     33 H6           4.8160    -1.0200     0.9130 ha         1 96C       0.121500
     34 H7           2.8570    -2.4140     1.2410 ha         1 96C       0.117000
     35 H8           1.2920    -4.3330    -0.0460 h4         1 96C       0.155000
     36 H9          -1.6960    -5.5830     1.2830 h1         1 96C       0.057033
     37 H10         -2.0350    -5.5950    -0.4590 h1         1 96C       0.057033
     38 H11         -0.4430    -6.0840     0.1380 h1         1 96C       0.057033
     39 H12          0.0600     0.2850     1.2930 ha         1 96C       0.131500
     40 H13          0.4090     1.9480     2.8110 h1         1 96C       0.041700
     41 H14          1.0520     2.4090     1.2180 h1         1 96C       0.041700
     42 H15          0.5890     3.6590     2.3870 h1         1 96C       0.041700
     43 H16         -3.5460     3.5330    -1.5670 h1         1 96C       0.032367
     44 H17         -3.6870     4.8810    -0.4250 h1         1 96C       0.032367
     45 H18         -2.1010     4.1570    -0.7420 h1         1 96C       0.032367
     46 H19         -4.8190    -0.3210    -2.2950 h1         1 96C       0.041700
     47 H20         -5.5640    -0.8180    -0.7600 h1         1 96C       0.041700
     48 H21         -6.3110     0.4580    -1.7380 h1         1 96C       0.041700
     49 H22         -3.3070    -1.2810    -0.8090 ha         1 96C       0.131500
     50 H23          0.6920    -0.1170    -1.6460 ha         1 96C       0.117000
     51 H24          2.6470     1.3200    -1.9660 ha         1 96C       0.121500
@<TRIPOS>BOND
     1     1     2 1   
     2     1    28 1   
     3     1    29 1   
     4     1    30 1   
     5     2     3 1   
     6     2    31 1   
     7     2    32 1   
     8     3     4 1   
     9     4     5 ar  
    10     4    27 ar  
    11     5     6 ar  
    12     5    33 1   
    13     6     7 ar  
    14     6    34 1   
    15     7     8 1   
    16     7    26 ar  
    17     8     9 2   
    18     8    13 1   
    19     9    10 1   
    20     9    35 1   
    21    10    11 1   
    22    10    12 1   
    23    11    36 1   
    24    11    37 1   
    25    11    38 1   
    26    12    13 2   
    27    13    14 1   
    28    14    15 ar  
    29    14    25 ar  
    30    15    16 ar  
    31    15    39 1   
    32    16    17 1   
    33    16    19 ar  
    34    17    18 1   
    35    18    40 1   
    36    18    41 1   
    37    18    42 1   
    38    19    20 1   
    39    19    22 ar  
    40    20    21 1   
    41    21    43 1   
    42    21    44 1   
    43    21    45 1   
    44    22    23 1   
    45    22    25 ar  
    46    23    24 1   
    47    24    46 1   
    48    24    47 1   
    49    24    48 1   
    50    25    49 1   
    51    26    27 ar  
    52    26    50 1   
    53    27    51 1   
@<TRIPOS>SUBSTRUCTURE
     1 96C         1 TEMP              0 ****  ****    0 ROOT
