@<TRIPOS>MOLECULE
96D
   34    35     1     0     0
SMALL
abcg2


@<TRIPOS>ATOM
      1 N3          -0.1350    -1.9750     0.6590 ns         1 96D      -0.602300
      2 C4          -1.0980    -1.1980     0.0480 c          1 96D       0.690100
      3 C8           2.0830    -1.2060    -0.7060 ca         1 96D      -0.288500
      4 C10          2.7920     0.2850    -2.4230 ca         1 96D      -0.122000
      5 C13          2.8390    -0.5300     0.2410 ca         1 96D      -0.015000
      6 C15          3.8210     2.2690     1.4230 c3         1 96D       0.385300
      7 C20         -5.2740     1.5580     0.3630 ca         1 96D       0.333000
      8 C21         -4.2570     1.5160    -0.5750 ca         1 96D       0.378900
      9 C24         -6.4080     2.4090     0.1760 cg         1 96D       0.227000
     10 C11          3.5490     0.9850    -1.4960 ca         1 96D      -0.045000
     11 C12          3.5660     0.5720    -0.1710 ca         1 96D       0.065100
     12 C18         -4.2020     0.0330     1.6300 ca         1 96D       0.246900
     13 C23         -3.1640    -0.0140     0.6720 ca         1 96D       0.464900
     14 C9           2.0420    -0.8150    -2.0340 ca         1 96D       0.019000
     15 F16          3.3870     3.2330     0.5790 f          1 96D      -0.133500
     16 F17          2.7290     1.8730     2.1160 f          1 96D      -0.133500
     17 N19         -5.2370     0.8110     1.4700 nb         1 96D      -0.574000
     18 N2          -2.1020    -0.8470     0.9220 ns         1 96D      -0.323900
     19 N22         -3.2020     0.7310    -0.4140 nb         1 96D      -0.655000
     20 N25         -7.3200     3.0920     0.0060 n1         1 96D      -0.423000
     21 O14          4.3660     1.2300     0.7390 os         1 96D      -0.390100
     22 O5          -1.0350    -0.8880    -1.1140 o          1 96D      -0.532100
     23 O6           1.9120    -3.3170     0.8490 o          1 96D      -0.519500
     24 O7           0.6780    -3.3300    -1.3390 o          1 96D      -0.519500
     25 S1           1.1640    -2.6200    -0.1780 sy         1 96D       1.197300
     26 H1          -0.1230    -2.1300     1.6610 hn         1 96D       0.345500
     27 H2           2.7820     0.6030    -3.4560 ha         1 96D       0.130000
     28 H3           2.8820    -0.8570     1.2720 ha         1 96D       0.143000
     29 H4           4.5680     2.6720     2.1000 h3         1 96D       0.109700
     30 H5          -4.2920     2.1290    -1.4670 h4         1 96D       0.049100
     31 H6           4.1390     1.8360    -1.8080 ha         1 96D       0.135000
     32 H7          -4.1640    -0.5800     2.5240 h4         1 96D       0.035100
     33 H8           1.4480    -1.3530    -2.7580 ha         1 96D       0.154000
     34 H9          -2.1090    -1.2980     1.8260 hn         1 96D       0.165000
@<TRIPOS>BOND
     1     1     2 1   
     2     1    25 1   
     3     1    26 1   
     4     2    18 1   
     5     2    22 2   
     6     3     5 ar  
     7     3    14 ar  
     8     3    25 1   
     9     4    10 ar  
    10     4    14 ar  
    11     4    27 1   
    12     5    11 ar  
    13     5    28 1   
    14     6    15 1   
    15     6    16 1   
    16     6    21 1   
    17     6    29 1   
    18     7     8 ar  
    19     7     9 1   
    20     7    17 ar  
    21     8    19 ar  
    22     8    30 1   
    23     9    20 3   
    24    10    11 ar  
    25    10    31 1   
    26    11    21 1   
    27    12    13 ar  
    28    12    17 ar  
    29    12    32 1   
    30    13    18 1   
    31    13    19 ar  
    32    14    33 1   
    33    18    34 1   
    34    23    25 2   
    35    24    25 2   
@<TRIPOS>SUBSTRUCTURE
     1 96D         1 TEMP              0 ****  ****    0 ROOT
