@<TRIPOS>MOLECULE
96D
   34    35     1     0     0
SMALL
No Charge or Current Charge


@<TRIPOS>ATOM
      1 N3          -0.1890    -1.7290     0.8240 ns         1 96D      -0.602300
      2 C4          -1.1860    -1.1470     0.1200 c          1 96D       0.690100
      3 C8           2.0730    -1.0230    -0.5790 ca         1 96D      -0.288500
      4 C10          2.6000     0.2610    -2.5810 ca         1 96D      -0.122000
      5 C13          2.8730    -0.1480     0.1890 ca         1 96D      -0.015000
      6 C15          4.5960     1.7890     1.6760 c3         1 96D       0.385300
      7 C20         -5.5940     1.4590     0.0840 ca         1 96D       0.333000
      8 C21         -4.3830     1.6450    -0.6370 ca         1 96D       0.378900
      9 C24         -6.7540     2.2490    -0.2410 cg         1 96D       0.227000
     10 C11          3.3970     1.1290    -1.8160 ca         1 96D      -0.045000
     11 C12          3.5410     0.9360    -0.4310 ca         1 96D       0.065100
     12 C18         -4.5710    -0.1690     1.3590 ca         1 96D       0.246900
     13 C23         -3.3680     0.0040     0.6160 ca         1 96D       0.464900
     14 C9           1.9360    -0.8140    -1.9680 ca         1 96D       0.019000
     15 F16          3.4470     1.8950     2.3840 f          1 96D      -0.133500
     16 F17          5.1820     0.6220     2.0320 f          1 96D      -0.133500
     17 N19         -5.7010     0.5480     1.0990 nb         1 96D      -0.574000
     18 N2          -2.1910    -0.6950     0.9370 ns         1 96D      -0.323900
     19 N22         -3.2520     0.9270    -0.3730 nb         1 96D      -0.655000
     20 N25         -7.6900     2.8960    -0.5130 n1         1 96D      -0.423000
     21 O14          4.3420     1.8370     0.2540 os         1 96D      -0.390100
     22 O5          -1.1890    -1.0570    -1.0960 o          1 96D      -0.532100
     23 O6           1.9800    -2.8070     1.4010 o          1 96D      -0.519500
     24 O7           0.8110    -3.3620    -0.8080 o          1 96D      -0.519500
     25 S1           1.2180    -2.3950     0.2180 sy         1 96D       1.197300
     26 H1          -0.2180    -1.7630     1.8280 hn         1 96D       0.345500
     27 H2           2.4940     0.4230    -3.6510 ha         1 96D       0.130000
     28 H3           2.9640    -0.3200     1.2580 ha         1 96D       0.143000
     29 H4           5.2580     2.6110     1.9690 h3         1 96D       0.109700
     30 H5          -4.3160     2.3830    -1.4350 h4         1 96D       0.049100
     31 H6           3.9070     1.9600    -2.2980 ha         1 96D       0.135000
     32 H7          -4.6280    -0.8930     2.1700 h4         1 96D       0.035100
     33 H8           1.3170    -1.4740    -2.5740 ha         1 96D       0.154000
     34 H9          -2.0830    -0.9010     1.9200 hn         1 96D       0.165000
@<TRIPOS>BOND
     1     1     2 1   
     2     1    25 1   
     3     1    26 1   
     4     2    18 1   
     5     2    22 2   
     6     3     5 ar  
     7     3    14 ar  
     8     3    25 1   
     9     4    10 ar  
    10     4    14 ar  
    11     4    27 1   
    12     5    11 ar  
    13     5    28 1   
    14     6    15 1   
    15     6    16 1   
    16     6    21 1   
    17     6    29 1   
    18     7     8 ar  
    19     7     9 1   
    20     7    17 ar  
    21     8    19 ar  
    22     8    30 1   
    23     9    20 3   
    24    10    11 ar  
    25    10    31 1   
    26    11    21 1   
    27    12    13 ar  
    28    12    17 ar  
    29    12    32 1   
    30    13    18 1   
    31    13    19 ar  
    32    14    33 1   
    33    18    34 1   
    34    23    25 2   
    35    24    25 2   
@<TRIPOS>SUBSTRUCTURE
     1 96D         1 TEMP              0 ****  ****    0 ROOT
