@<TRIPOS>MOLECULE
96E
   36    35     1     0     0
SMALL
No Charge or Current Charge


@<TRIPOS>ATOM
      1 C10          2.4500    -0.2930    -0.5280 c3         1 96E      -0.075400
      2 O01         -3.0620     2.3250    -0.3450 oh         1 96E      -0.660000
      3 C02         -1.7830     2.2410     0.3070 c3         1 96E       0.124600
      4 C03         -1.6120     0.9170     1.1200 c3         1 96E       0.178800
      5 N04         -1.3720    -0.3510     0.3470 n3         1 96E      -0.739600
      6 C05         -2.5370    -0.8330    -0.4440 c3         1 96E       0.188800
      7 C06         -3.8160    -1.1250     0.3760 c3         1 96E      -0.079400
      8 C07         -4.9240    -1.7960    -0.4600 c3         1 96E      -0.088100
      9 C08         -0.1240    -0.3520    -0.4630 c3         1 96E       0.179800
     10 C09          1.1810    -0.1040     0.3320 c3         1 96E      -0.079400
     11 C11          3.7570    -0.0420     0.2580 c3         1 96E      -0.081400
     12 C12          5.0220    -0.2330    -0.6030 c3         1 96E       0.163600
     13 O13          6.1880     0.0150     0.1900 oh         1 96E      -0.663000
     14 H1           2.4640    -1.3130    -0.9320 hc         1 96E       0.036700
     15 H2           2.4090     0.3910    -1.3850 hc         1 96E       0.036700
     16 H3          -3.0810     3.1770    -0.8340 ho         1 96E       0.439000
     17 H4          -0.9710     2.3350    -0.4250 h1         1 96E       0.018700
     18 H5          -1.6810     3.0810     1.0070 h1         1 96E       0.018700
     19 H6          -0.7750     1.0760     1.8120 h1         1 96E       0.055700
     20 H7          -2.4870     0.8060     1.7720 h1         1 96E       0.055700
     21 H9          -2.7800    -0.1180    -1.2410 h1         1 96E       0.030200
     22 H10         -2.2580    -1.7700    -0.9450 h1         1 96E       0.030200
     23 H11         -3.5610    -1.7780     1.2210 hc         1 96E       0.047200
     24 H12         -4.2140    -0.1940     0.7930 hc         1 96E       0.047200
     25 H13         -4.5790    -2.7560    -0.8630 hc         1 96E       0.030700
     26 H14         -5.8100    -1.9820     0.1590 hc         1 96E       0.030700
     27 H15         -5.2180    -1.1530    -1.2980 hc         1 96E       0.030700
     28 H16         -0.0220    -1.3300    -0.9530 h1         1 96E       0.026700
     29 H17         -0.1940     0.3940    -1.2670 h1         1 96E       0.026700
     30 H18          1.2160    -0.7930     1.1840 hc         1 96E       0.045700
     31 H19          1.1810     0.9150     0.7350 hc         1 96E       0.045700
     32 H20          3.7470     0.9780     0.6600 hc         1 96E       0.053200
     33 H21          5.0420    -1.2570    -0.9970 h1         1 96E       0.014700
     34 H22          6.9650    -0.1180    -0.3980 ho         1 96E       0.442000
     35 H8           3.8000    -0.7260     1.1150 hc         1 96E       0.053200
     36 H23          4.9890     0.4590    -1.4550 h1         1 96E       0.014700
@<TRIPOS>BOND
     1     1    10 1   
     2     1    11 1   
     3     1    14 1   
     4     1    15 1   
     5     2     3 1   
     6     2    16 1   
     7     3     4 1   
     8     3    17 1   
     9     3    18 1   
    10     4     5 1   
    11     4    19 1   
    12     4    20 1   
    13     5     6 1   
    14     5     9 1   
    15     6     7 1   
    16     6    21 1   
    17     6    22 1   
    18     7     8 1   
    19     7    23 1   
    20     7    24 1   
    21     8    25 1   
    22     8    26 1   
    23     8    27 1   
    24     9    10 1   
    25     9    28 1   
    26     9    29 1   
    27    10    30 1   
    28    10    31 1   
    29    11    12 1   
    30    11    32 1   
    31    11    35 1   
    32    12    13 1   
    33    12    33 1   
    34    12    36 1   
    35    13    34 1   
@<TRIPOS>SUBSTRUCTURE
     1 96E         1 TEMP              0 ****  ****    0 ROOT
