@<TRIPOS>MOLECULE
96E
   36    35     1     0     0
SMALL
abcg2


@<TRIPOS>ATOM
      1 C10          2.3730    -0.2680    -0.5220 c3         1 96E      -0.075400
      2 O01         -2.9010     2.2590    -0.3860 oh         1 96E      -0.660000
      3 C02         -1.6970     2.2090     0.3510 c3         1 96E       0.124600
      4 C03         -1.5840     0.8880     1.0970 c3         1 96E       0.178800
      5 N04         -1.3620    -0.3240     0.3300 n3         1 96E      -0.739600
      6 C05         -2.4900    -0.8200    -0.4420 c3         1 96E       0.188800
      7 C06         -3.7670    -1.0280     0.3620 c3         1 96E      -0.079400
      8 C07         -4.8010    -1.8090    -0.4390 c3         1 96E      -0.088100
      9 C08         -0.1480    -0.3200    -0.4660 c3         1 96E       0.179800
     10 C09          1.1260    -0.0970     0.3360 c3         1 96E      -0.079400
     11 C11          3.6630    -0.0670     0.2640 c3         1 96E      -0.081400
     12 C12          4.8890    -0.2030    -0.6160 c3         1 96E       0.163600
     13 O13          6.0490    -0.0090     0.1670 oh         1 96E      -0.663000
     14 H1           2.3730    -1.2660    -0.9740 hc         1 96E       0.036700
     15 H2           2.3400     0.4430    -1.3550 hc         1 96E       0.036700
     16 H3          -2.9010     3.0700    -0.9020 ho         1 96E       0.439000
     17 H4          -0.8240     2.3480    -0.3000 h1         1 96E       0.018700
     18 H5          -1.6550     3.0120     1.1000 h1         1 96E       0.018700
     19 H6          -0.7590     1.0020     1.8060 h1         1 96E       0.055700
     20 H7          -2.4720     0.7570     1.7210 h1         1 96E       0.055700
     21 H9          -2.7200    -0.1940    -1.3170 h1         1 96E       0.030200
     22 H10         -2.1860    -1.7940    -0.8430 h1         1 96E       0.030200
     23 H11         -3.5280    -1.5630     1.2850 hc         1 96E       0.047200
     24 H12         -4.1960    -0.0670     0.6540 hc         1 96E       0.047200
     25 H13         -4.4290    -2.8000    -0.7060 hc         1 96E       0.030700
     26 H14         -5.7240    -1.9420     0.1260 hc         1 96E       0.030700
     27 H15         -5.0540    -1.2930    -1.3670 hc         1 96E       0.030700
     28 H16         -0.0790    -1.3020    -0.9460 h1         1 96E       0.026700
     29 H17         -0.1840     0.4080    -1.2940 h1         1 96E       0.026700
     30 H18          1.1490    -0.8010     1.1740 hc         1 96E       0.045700
     31 H19          1.1400     0.9060     0.7730 hc         1 96E       0.045700
     32 H20          3.6580     0.9240     0.7300 hc         1 96E       0.053200
     33 H21          4.8880    -1.1950    -1.0880 h1         1 96E       0.014700
     34 H22          6.8160    -0.1040    -0.4040 ho         1 96E       0.442000
     35 H8           3.7140    -0.7980     1.0770 hc         1 96E       0.053200
     36 H23          4.8320     0.5320    -1.4310 h1         1 96E       0.014700
@<TRIPOS>BOND
     1     1    10 1   
     2     1    11 1   
     3     1    14 1   
     4     1    15 1   
     5     2     3 1   
     6     2    16 1   
     7     3     4 1   
     8     3    17 1   
     9     3    18 1   
    10     4     5 1   
    11     4    19 1   
    12     4    20 1   
    13     5     6 1   
    14     5     9 1   
    15     6     7 1   
    16     6    21 1   
    17     6    22 1   
    18     7     8 1   
    19     7    23 1   
    20     7    24 1   
    21     8    25 1   
    22     8    26 1   
    23     8    27 1   
    24     9    10 1   
    25     9    28 1   
    26     9    29 1   
    27    10    30 1   
    28    10    31 1   
    29    11    12 1   
    30    11    32 1   
    31    11    35 1   
    32    12    13 1   
    33    12    33 1   
    34    12    36 1   
    35    13    34 1   
@<TRIPOS>SUBSTRUCTURE
     1 96E         1 TEMP              0 ****  ****    0 ROOT
