@<TRIPOS>MOLECULE
96F
   49    51     1     0     0
SMALL
bcc


@<TRIPOS>ATOM
      1 CBA          8.0490     0.4000     0.9940 c3         1 96F      -0.087100
      2 CAZ          6.8950     0.3270     0.0050 c3         1 96F      -0.099400
      3 CAX          5.5100     0.2410     0.6600 c3         1 96F       0.066800
      4 CAY          5.3710    -0.9810     1.5690 c3         1 96F      -0.084100
      5 OBB          5.2500     1.3700     1.4620 oh         1 96F      -0.589800
      6 CAW          4.4270     0.0820    -0.4200 c          1 96F       0.551100
      7 OBC          4.6200    -0.5750    -1.4120 o          1 96F      -0.495100
      8 CAV          3.0900     0.7390    -0.1260 c3         1 96F      -0.284400
      9 CAT          2.0100     0.4290    -1.1300 c          1 96F       0.606700
     10 OAU          2.1520     0.6310    -2.3090 o          1 96F      -0.470100
     11 CAM          0.7110    -0.0970    -0.5930 ca         1 96F      -0.212600
     12 CAL          0.6120    -1.3800    -0.0690 ca         1 96F       0.017700
     13 CAS          1.8030    -2.2850     0.0190 c3         1 96F      -0.067800
     14 CAK         -0.6300    -1.8330     0.3780 ca         1 96F      -0.139000
     15 CAH         -1.7450    -1.0210     0.3100 ca         1 96F      -0.070600
     16 CAG         -3.0430    -1.5410     0.7960 c          1 96F       0.585300
     17 OAO         -3.1310    -2.6550     1.2670 o          1 96F      -0.504100
     18 CAA         -4.2350    -0.6620     0.6860 ca         1 96F      -0.090600
     19 CAF         -5.4460    -1.1700     1.1220 ca         1 96F      -0.128000
     20 CAE         -6.5890    -0.3860     1.0310 ca         1 96F      -0.063000
     21 CAD         -6.5210     0.8880     0.5130 ca         1 96F      -0.227000
     22 CAC         -5.3050     1.4200     0.0720 ca         1 96F       0.198100
     23 OAR         -5.2560     2.6540    -0.4260 oh         1 96F      -0.452100
     24 CAB         -4.1360     0.6400     0.1550 ca         1 96F      -0.173600
     25 CAJ         -2.8350     1.1520    -0.2980 c          1 96F       0.620300
     26 OAP         -2.7100     2.2870    -0.7540 o          1 96F      -0.548100
     27 CAI         -1.6610     0.2760    -0.2090 ca         1 96F      -0.266600
     28 CAN         -0.4120     0.7380    -0.6660 ca         1 96F       0.246100
     29 OAQ         -0.2370     1.9570    -1.1550 oh         1 96F      -0.500100
     30 HBB          8.9900     0.5280     0.4590 hc         1 96F       0.038033
     31 HBC          7.9460     1.2400     1.6810 hc         1 96F       0.038033
     32 HBA          8.1380    -0.5110     1.5860 hc         1 96F       0.038033
     33 HA2          6.9160     1.2110    -0.6420 hc         1 96F       0.056700
     34 HA1          7.0320    -0.5300    -0.6550 hc         1 96F       0.056700
     35 HAY          6.0690    -0.9150     2.4050 hc         1 96F       0.050700
     36 HAZ          4.3670    -1.0520     1.9910 hc         1 96F       0.050700
     37 HA0          5.5780    -1.9000     1.0230 hc         1 96F       0.050700
     38 HBE          5.4910     2.1660     0.9740 ho         1 96F       0.409000
     39 H1           2.7760     0.5080     0.8940 hc         1 96F       0.092700
     40 HAV          3.2360     1.8260    -0.1380 hc         1 96F       0.092700
     41 HAS          2.4140    -2.0430     0.8920 hc         1 96F       0.056700
     42 HAT          1.4910    -3.3220     0.1300 hc         1 96F       0.056700
     43 HAU          2.4410    -2.2240    -0.8620 hc         1 96F       0.056700
     44 HAK         -0.7160    -2.8350     0.7740 ha         1 96F       0.159000
     45 HAF         -5.5030    -2.1690     1.5280 ha         1 96F       0.162000
     46 HAE         -7.5410    -0.7760     1.3650 ha         1 96F       0.141000
     47 HAD         -7.4200     1.4910     0.4440 ha         1 96F       0.139000
     48 HAR         -6.1390     3.0430    -0.4300 ho         1 96F       0.432000
     49 HAQ         -1.1150     2.4100    -1.1360 ho         1 96F       0.485000
@<TRIPOS>BOND
     1     1     2 1   
     2     1    30 1   
     3     1    31 1   
     4     1    32 1   
     5     2     3 1   
     6     2    33 1   
     7     2    34 1   
     8     3     4 1   
     9     3     5 1   
    10     3     6 1   
    11     4    35 1   
    12     4    36 1   
    13     4    37 1   
    14     5    38 1   
    15     6     7 2   
    16     6     8 1   
    17     8     9 1   
    18     8    39 1   
    19     8    40 1   
    20     9    10 2   
    21     9    11 1   
    22    11    12 ar  
    23    11    28 ar  
    24    12    13 1   
    25    12    14 ar  
    26    13    41 1   
    27    13    42 1   
    28    13    43 1   
    29    14    15 ar  
    30    14    44 1   
    31    15    16 1   
    32    15    27 ar  
    33    16    17 2   
    34    16    18 1   
    35    18    19 ar  
    36    18    24 ar  
    37    19    20 ar  
    38    19    45 1   
    39    20    21 ar  
    40    20    46 1   
    41    21    22 ar  
    42    21    47 1   
    43    22    23 1   
    44    22    24 ar  
    45    23    48 1   
    46    24    25 1   
    47    25    26 2   
    48    25    27 1   
    49    27    28 ar  
    50    28    29 1   
    51    29    49 1   
@<TRIPOS>SUBSTRUCTURE
     1 96F         1 TEMP              0 ****  ****    0 ROOT
