@<TRIPOS>MOLECULE
96F
   49    51     1     0     0
SMALL
No Charge or Current Charge


@<TRIPOS>ATOM
      1 CBA          6.0000    -0.1760     2.6490 c3         1 96F      -0.087100
      2 CAZ          5.7600    -0.0980     1.1200 c3         1 96F      -0.099400
      3 CAX          4.4640     0.6460     0.6510 c3         1 96F       0.090000
      4 CAY          3.1940    -0.0300     1.2390 c3         1 96F      -0.084100
      5 OBB          4.5150     1.9880     1.1830 oh         1 96F      -0.652000
      6 CAW          4.3970     0.6890    -0.9330 c          1 96F       0.551100
      7 OBC          5.2710     0.1990    -1.6390 o          1 96F      -0.495100
      8 CAV          3.2440     1.4450    -1.5840 c3         1 96F      -0.284400
      9 CAT          2.3580     0.4330    -2.2940 c          1 96F       0.606700
     10 OAU          2.6160     0.0740    -3.4350 o          1 96F      -0.470100
     11 CAM          1.1820    -0.1420    -1.5600 ca         1 96F      -0.212600
     12 CAL          1.1420    -1.5160    -1.2470 ca         1 96F       0.017700
     13 CAS          2.2710    -2.4650    -1.6440 c3         1 96F      -0.067800
     14 CAK          0.0400    -2.0250    -0.5450 ca         1 96F      -0.121000
     15 CAH         -1.0330    -1.1960    -0.1510 ca         1 96F      -0.070600
     16 CAG         -2.1880    -1.8060     0.6090 c          1 96F       0.585300
     17 OAO         -2.2170    -3.0080     0.8580 o          1 96F      -0.504100
     18 CAA         -3.3060    -0.8930     1.0540 ca         1 96F      -0.090600
     19 CAF         -4.3710    -1.4420     1.8060 ca         1 96F      -0.110000
     20 CAE         -5.4280    -0.6400     2.2480 ca         1 96F      -0.045000
     21 CAD         -5.4330     0.7250     1.9440 ca         1 96F      -0.209000
     22 CAC         -4.3900     1.2950     1.1980 ca         1 96F       0.198100
     23 OAR         -4.4660     2.6330     0.9510 oh         1 96F      -0.491100
     24 CAB         -3.3060     0.4940     0.7360 ca         1 96F      -0.173600
     25 CAJ         -2.1640     1.0800    -0.0830 c          1 96F       0.620300
     26 OAP         -2.1520     2.2530    -0.4410 o          1 96F      -0.548100
     27 CAI         -1.0070     0.1810    -0.4820 ca         1 96F      -0.266600
     28 CAN          0.1090     0.6910    -1.1950 ca         1 96F       0.246100
     29 OAQ          0.1550     2.0010    -1.5620 oh         1 96F      -0.539100
     30 HBB          6.9690    -0.6470     2.8530 hc         1 96F       0.038033
     31 HBC          6.0100     0.8220     3.1040 hc         1 96F       0.038033
     32 HBA          5.2290    -0.7770     3.1450 hc         1 96F       0.038033
     33 HA2          6.6350     0.3870     0.6680 hc         1 96F       0.056700
     34 HA1          5.7450    -1.1230     0.7260 hc         1 96F       0.056700
     35 HAY          3.2070    -0.0150     2.3340 hc         1 96F       0.050700
     36 HAZ          2.2800     0.4870     0.9310 hc         1 96F       0.050700
     37 HA0          3.1240    -1.0760     0.9180 hc         1 96F       0.050700
     38 HBE          5.4130     2.3470     1.0110 ho         1 96F       0.448000
     39 H1           2.6780     1.9550    -0.8020 hc         1 96F       0.092700
     40 HAV          3.6590     2.1290    -2.3310 hc         1 96F       0.092700
     41 HAS          3.2550    -2.0590    -1.3820 hc         1 96F       0.056700
     42 HAT          2.1820    -3.4360    -1.1420 hc         1 96F       0.056700
     43 HAU          2.2610    -2.6530    -2.7240 hc         1 96F       0.056700
     44 HAK          0.0190    -3.0850    -0.3010 ha         1 96F       0.141000
     45 HAF         -4.3830    -2.5010     2.0560 ha         1 96F       0.144000
     46 HAE         -6.2400    -1.0760     2.8260 ha         1 96F       0.123000
     47 HAD         -6.2590     1.3390     2.2960 ha         1 96F       0.121000
     48 HAR         -5.2880     2.9770     1.3580 ho         1 96F       0.471000
     49 HAQ         -0.6920     2.4060    -1.2410 ho         1 96F       0.524000
@<TRIPOS>BOND
     1     1     2 1   
     2     1    30 1   
     3     1    31 1   
     4     1    32 1   
     5     2     3 1   
     6     2    33 1   
     7     2    34 1   
     8     3     4 1   
     9     3     5 1   
    10     3     6 1   
    11     4    35 1   
    12     4    36 1   
    13     4    37 1   
    14     5    38 1   
    15     6     7 2   
    16     6     8 1   
    17     8     9 1   
    18     8    39 1   
    19     8    40 1   
    20     9    10 2   
    21     9    11 1   
    22    11    12 ar  
    23    11    28 ar  
    24    12    13 1   
    25    12    14 ar  
    26    13    41 1   
    27    13    42 1   
    28    13    43 1   
    29    14    15 ar  
    30    14    44 1   
    31    15    16 1   
    32    15    27 ar  
    33    16    17 2   
    34    16    18 1   
    35    18    19 ar  
    36    18    24 ar  
    37    19    20 ar  
    38    19    45 1   
    39    20    21 ar  
    40    20    46 1   
    41    21    22 ar  
    42    21    47 1   
    43    22    23 1   
    44    22    24 ar  
    45    23    48 1   
    46    24    25 1   
    47    25    26 2   
    48    25    27 1   
    49    27    28 ar  
    50    28    29 1   
    51    29    49 1   
@<TRIPOS>SUBSTRUCTURE
     1 96F         1 TEMP              0 ****  ****    0 ROOT
