@<TRIPOS>MOLECULE
96G
   38    40     1     0     0
SMALL
No Charge or Current Charge


@<TRIPOS>ATOM
      1 C7          -1.5440     1.9670     0.1060 c          1 96G       0.681100
      2 C9           3.2310     0.8280    -0.0260 cc         1 96G      -0.114000
      3 C3          -3.3190     0.6450    -0.9640 cc         1 96G       0.543300
      4 C2           1.5980     2.6860     0.2410 cc         1 96G      -0.515500
      5 C11         -4.6360    -1.3740    -0.9400 cc         1 96G      -0.251900
      6 C14         -4.9290    -0.5080    -1.9680 cd         1 96G       0.347900
      7 C13          3.2570     1.7140    -1.0770 cd         1 96G      -0.171000
      8 C12          2.3220     2.7740    -0.9260 cd         1 96G       0.015000
      9 C17          4.1260    -0.3320     0.0320 ca         1 96G      -0.077000
     10 C19          4.5680    -0.8190     1.2790 ca         1 96G      -0.051000
     11 C20          4.5480    -0.9890    -1.1440 ca         1 96G      -0.051000
     12 C22          5.8430    -2.5810     0.1770 ca         1 96G       0.159100
     13 C23          5.4010    -2.1050    -1.0750 ca         1 96G      -0.174500
     14 C24          5.4210    -1.9340     1.3470 ca         1 96G      -0.174500
     15 C26          7.1700    -4.4030    -0.8310 c3         1 96G       0.147900
     16 N10         -4.1670     0.6550    -1.9780 nd         1 96G      -0.709000
     17 N4          -0.9090     3.1410    -0.0930 ns         1 96G      -0.582300
     18 N8          -2.4940     1.7300    -0.8410 ns         1 96G      -0.471400
     19 O15          0.0790     3.5460     2.2270 o          1 96G      -0.522000
     20 O16          0.5980     5.1240     0.2520 o          1 96G      -0.522000
     21 O18         -1.2960     1.2060     1.0210 o          1 96G      -0.590100
     22 O25          6.6810    -3.6710     0.3070 os         1 96G      -0.336100
     23 S1           0.3390     3.7920     0.8050 sy         1 96G       1.250300
     24 S5          -3.3710    -0.7650     0.0820 ss         1 96G       0.116600
     25 S6           2.0580     1.2990     1.2070 ss         1 96G       0.416000
     26 Br21        -5.4630    -3.0370    -0.6150 br         1 96G      -0.020100
     27 H1          -5.6790    -0.6670    -2.7330 h4         1 96G       0.052100
     28 H2           3.9210     1.6330    -1.9310 ha         1 96G       0.139000
     29 H3           2.1980     3.5690    -1.6580 ha         1 96G       0.147000
     30 H4           4.2610    -0.3320     2.2010 ha         1 96G       0.118500
     31 H5           4.2060    -0.6470    -2.1170 ha         1 96G       0.118500
     32 H6           5.7040    -2.5850    -2.0010 ha         1 96G       0.127000
     33 H7           5.7590    -2.2980     2.3140 ha         1 96G       0.127000
     34 H8           7.8170    -5.2260    -0.5040 h1         1 96G       0.044033
     35 H9           6.3390    -4.8320    -1.4050 h1         1 96G       0.044033
     36 H10          7.7560    -3.7520    -1.4920 h1         1 96G       0.044033
     37 H11         -1.1260     3.7230    -0.8820 hn         1 96G       0.349500
     38 H12         -2.6060     2.4410    -1.5440 hn         1 96G       0.347500
@<TRIPOS>BOND
     1     1    17 1   
     2     1    18 1   
     3     1    21 2   
     4     2     7 2   
     5     2     9 1   
     6     2    25 1   
     7     3    16 2   
     8     3    18 1   
     9     3    24 1   
    10     4     8 2   
    11     4    23 1   
    12     4    25 1   
    13     5     6 2   
    14     5    24 1   
    15     5    26 1   
    16     6    16 1   
    17     6    27 1   
    18     7     8 1   
    19     7    28 1   
    20     8    29 1   
    21     9    10 ar  
    22     9    11 ar  
    23    10    14 ar  
    24    10    30 1   
    25    11    13 ar  
    26    11    31 1   
    27    12    13 ar  
    28    12    14 ar  
    29    12    22 1   
    30    13    32 1   
    31    14    33 1   
    32    15    22 1   
    33    15    34 1   
    34    15    35 1   
    35    15    36 1   
    36    17    23 1   
    37    17    37 1   
    38    18    38 1   
    39    19    23 2   
    40    20    23 2   
@<TRIPOS>SUBSTRUCTURE
     1 96G         1 TEMP              0 ****  ****    0 ROOT
