@<TRIPOS>MOLECULE
96G
   38    40     1     0     0
SMALL
abcg2


@<TRIPOS>ATOM
      1 C7          -1.5760     2.0500    -0.1070 c          1 96G       0.681100
      2 C9           3.2940     0.8360    -0.1810 cc         1 96G      -0.114000
      3 C3          -3.3870     0.7270    -0.9690 cc         1 96G       0.543300
      4 C2           1.6370     2.6250     0.1050 cc         1 96G      -0.515500
      5 C11         -4.3730    -1.4450    -0.7420 cc         1 96G      -0.251900
      6 C14         -4.9810    -0.6250    -1.6290 cd         1 96G       0.347900
      7 C13          3.4360     1.8530    -1.0970 cd         1 96G      -0.171000
      8 C12          2.4900     2.8820    -0.9320 cd         1 96G       0.015000
      9 C17          4.0960    -0.3760    -0.0560 ca         1 96G      -0.077000
     10 C19          4.2230    -1.0520     1.1630 ca         1 96G      -0.051000
     11 C20          4.7740    -0.8890    -1.1600 ca         1 96G      -0.051000
     12 C22          5.6750    -2.6900     0.1580 ca         1 96G       0.159100
     13 C23          5.5580    -2.0280    -1.0640 ca         1 96G      -0.174500
     14 C24          4.9940    -2.1900     1.2710 ca         1 96G      -0.174500
     15 C26          7.1350    -4.3340    -0.7330 c3         1 96G       0.147900
     16 N10         -4.4100     0.6090    -1.7500 nd         1 96G      -0.709000
     17 N4          -0.9800     3.2820    -0.2040 ns         1 96G      -0.582300
     18 N8          -2.6550     1.8860    -0.9200 ns         1 96G      -0.471400
     19 O15          0.1480     3.3860     2.0660 o          1 96G      -0.522000
     20 O16          0.6860     5.0320     0.2340 o          1 96G      -0.522000
     21 O18         -1.1750     1.1760     0.6340 o          1 96G      -0.590100
     22 O25          6.4070    -3.7950     0.3550 os         1 96G      -0.336100
     23 S1           0.3910     3.6850     0.6740 sy         1 96G       1.250300
     24 S5          -3.0170    -0.6630    -0.0040 ss         1 96G       0.116600
     25 S6           1.9710     1.1310     0.8780 ss         1 96G       0.416000
     26 BR21        -4.8340    -3.1830    -0.2930 br         1 96G      -0.020100
     27 H1          -5.8500    -0.8750    -2.2200 h4         1 96G       0.052100
     28 H2           4.2150     1.8780    -1.8450 ha         1 96G       0.139000
     29 H3           2.4560     3.7760    -1.5380 ha         1 96G       0.147000
     30 H4           3.7290    -0.6780     2.0530 ha         1 96G       0.118500
     31 H5           4.6820    -0.4080    -2.1250 ha         1 96G       0.118500
     32 H6           6.0610    -2.3870    -1.9510 ha         1 96G       0.127000
     33 H7           5.0860    -2.6940     2.2240 ha         1 96G       0.127000
     34 H8           7.6660    -5.2010    -0.3490 h1         1 96G       0.044033
     35 H9           6.4770    -4.6540    -1.5450 h1         1 96G       0.044033
     36 H10          7.8630    -3.6200    -1.1270 h1         1 96G       0.044033
     37 H11         -1.2780     3.9620    -0.8940 hn         1 96G       0.349500
     38 H12         -2.9710     2.6310    -1.5270 hn         1 96G       0.347500
@<TRIPOS>BOND
     1     1    17 1   
     2     1    18 1   
     3     1    21 2   
     4     2     7 2   
     5     2     9 1   
     6     2    25 1   
     7     3    16 2   
     8     3    18 1   
     9     3    24 1   
    10     4     8 2   
    11     4    23 1   
    12     4    25 1   
    13     5     6 2   
    14     5    24 1   
    15     5    26 1   
    16     6    16 1   
    17     6    27 1   
    18     7     8 1   
    19     7    28 1   
    20     8    29 1   
    21     9    10 ar  
    22     9    11 ar  
    23    10    14 ar  
    24    10    30 1   
    25    11    13 ar  
    26    11    31 1   
    27    12    13 ar  
    28    12    14 ar  
    29    12    22 1   
    30    13    32 1   
    31    14    33 1   
    32    15    22 1   
    33    15    34 1   
    34    15    35 1   
    35    15    36 1   
    36    17    23 1   
    37    17    37 1   
    38    18    38 1   
    39    19    23 2   
    40    20    23 2   
@<TRIPOS>SUBSTRUCTURE
     1 96G         1 TEMP              0 ****  ****    0 ROOT
