@<TRIPOS>MOLECULE
96H
   34    33     1     0     0
SMALL
bcc


@<TRIPOS>ATOM
      1 C10          0.9850    -0.9240     0.6870 c3         1 96H       0.150133
      2 O01         -2.7430    -1.1200    -1.0930 oh         1 96H      -0.605467
      3 C02         -2.6780    -0.3080     0.0620 c3         1 96H       0.131767
      4 C03         -3.8540    -0.5620     0.9970 c3         1 96H      -0.124100
      5 C04         -1.3620    -0.4840     0.8170 c3         1 96H       0.150133
      6 N05         -0.1790    -0.4060    -0.0120 n3         1 96H      -0.744600
      7 C06         -0.0450     0.8250    -0.7650 c3         1 96H       0.150133
      8 C07          0.0580     2.1440     0.0060 c3         1 96H       0.131767
      9 O08          1.1830     2.1780     0.8640 oh         1 96H      -0.605467
     10 C09          0.0710     3.3130    -0.9720 c3         1 96H      -0.124100
     11 C11          2.2520    -1.0370    -0.1620 c3         1 96H       0.131767
     12 O13          2.9860     0.1880    -0.2210 oh         1 96H      -0.605467
     13 C12          3.1440    -2.1590     0.3480 c3         1 96H      -0.124100
     14 H1           1.2330    -0.3770     1.6100 h1         1 96H       0.045033
     15 H2           0.7160    -1.9350     1.0100 h1         1 96H       0.045033
     16 H4          -2.7570     0.7210    -0.3030 h1         1 96H       0.069700
     17 H5          -3.8240    -1.5750     1.4050 hc         1 96H       0.042033
     18 H6          -3.8470     0.1350     1.8360 hc         1 96H       0.042033
     19 H7          -4.8000    -0.4370     0.4710 hc         1 96H       0.042033
     20 H8          -1.3540     0.2310     1.6570 h1         1 96H       0.045033
     21 H9          -1.3700    -1.4780     1.2810 h1         1 96H       0.045033
     22 H11          0.8210     0.7420    -1.4290 h1         1 96H       0.045033
     23 H12         -0.9010     0.9000    -1.4420 h1         1 96H       0.045033
     24 H13         -0.8220     2.2500     0.6530 h1         1 96H       0.069700
     25 H14          1.8930     1.6770     0.4360 ho         1 96H       0.409667
     26 H15         -0.8480     3.3420    -1.5600 hc         1 96H       0.042033
     27 H16          0.1580     4.2630    -0.4450 hc         1 96H       0.042033
     28 H17          0.9110     3.2320    -1.6660 hc         1 96H       0.042033
     29 H18          1.9580    -1.2610    -1.1920 h1         1 96H       0.069700
     30 H19          3.5830     0.2130     0.5360 ho         1 96H       0.409667
     31 H20          2.6350    -3.1200     0.2810 hc         1 96H       0.042033
     32 H21          4.0640    -2.2230    -0.2350 hc         1 96H       0.042033
     33 H22          3.4130    -2.0000     1.3960 hc         1 96H       0.042033
     34 H3          -2.4400    -2.0030    -0.8580 ho         1 96H       0.409667
@<TRIPOS>BOND
     1     1     6 1   
     2     1    11 1   
     3     1    14 1   
     4     1    15 1   
     5     2     3 1   
     6     2    34 1   
     7     3     4 1   
     8     3     5 1   
     9     3    16 1   
    10     4    17 1   
    11     4    18 1   
    12     4    19 1   
    13     5     6 1   
    14     5    20 1   
    15     5    21 1   
    16     6     7 1   
    17     7     8 1   
    18     7    22 1   
    19     7    23 1   
    20     8     9 1   
    21     8    10 1   
    22     8    24 1   
    23     9    25 1   
    24    10    26 1   
    25    10    27 1   
    26    10    28 1   
    27    11    12 1   
    28    11    13 1   
    29    11    29 1   
    30    12    30 1   
    31    13    31 1   
    32    13    32 1   
    33    13    33 1   
@<TRIPOS>SUBSTRUCTURE
     1 96H         1 TEMP              0 ****  ****    0 ROOT
