@<TRIPOS>MOLECULE
96H
   34    33     1     0     0
SMALL
No Charge or Current Charge


@<TRIPOS>ATOM
      1 C10          0.9280    -0.9290     0.7560 c3         1 96H       0.150133
      2 O01         -2.6990    -1.1280    -1.0790 oh         1 96H      -0.667667
      3 C02         -2.8200    -0.2930     0.0750 c3         1 96H       0.154967
      4 C03         -4.0640    -0.7040     0.8860 c3         1 96H      -0.124100
      5 C04         -1.4930    -0.4170     0.8720 c3         1 96H       0.150133
      6 N05         -0.2680    -0.4220     0.0110 n3         1 96H      -0.744600
      7 C06         -0.0650     0.8450    -0.7730 c3         1 96H       0.150133
      8 C07          0.1930     2.1640     0.0290 c3         1 96H       0.154967
      9 O08          1.4700     2.1400     0.6800 oh         1 96H      -0.667667
     10 C09          0.1480     3.4060    -0.8830 c3         1 96H      -0.124100
     11 C11          2.2240    -1.1790    -0.0780 c3         1 96H       0.154967
     12 O13          2.9250     0.0530    -0.3220 oh         1 96H      -0.667667
     13 C12          3.1960    -2.1360     0.6400 c3         1 96H      -0.124100
     14 H1           1.1680    -0.2660     1.5970 h1         1 96H       0.045033
     15 H2           0.6570    -1.8940     1.2070 h1         1 96H       0.045033
     16 H4          -2.9380     0.7560    -0.2330 h1         1 96H       0.069700
     17 H5          -3.9950    -1.7510     1.2080 hc         1 96H       0.042033
     18 H6          -4.1630    -0.0750     1.7790 hc         1 96H       0.042033
     19 H7          -4.9730    -0.5870     0.2840 hc         1 96H       0.042033
     20 H8          -1.4450     0.3880     1.6180 h1         1 96H       0.045033
     21 H9          -1.5400    -1.3580     1.4370 h1         1 96H       0.045033
     22 H11          0.7530     0.7120    -1.4930 h1         1 96H       0.045033
     23 H12         -0.9520     1.0190    -1.3950 h1         1 96H       0.045033
     24 H13         -0.6060     2.2780     0.7750 h1         1 96H       0.069700
     25 H14          1.9450     1.3410     0.3240 ho         1 96H       0.448667
     26 H15         -0.8290     3.4880    -1.3730 hc         1 96H       0.042033
     27 H16          0.3120     4.3200    -0.3000 hc         1 96H       0.042033
     28 H17          0.9190     3.3480    -1.6610 hc         1 96H       0.042033
     29 H18          1.9300    -1.6470    -1.0270 h1         1 96H       0.069700
     30 H19          3.7230    -0.1740    -0.8510 ho         1 96H       0.448667
     31 H20          2.7150    -3.1040     0.8250 hc         1 96H       0.042033
     32 H21          4.0890    -2.3150     0.0300 hc         1 96H       0.042033
     33 H22          3.5120    -1.7200     1.6050 hc         1 96H       0.042033
     34 H3          -1.7190    -1.2150    -1.1720 ho         1 96H       0.448667
@<TRIPOS>BOND
     1     1     6 1   
     2     1    11 1   
     3     1    14 1   
     4     1    15 1   
     5     2     3 1   
     6     2    34 1   
     7     3     4 1   
     8     3     5 1   
     9     3    16 1   
    10     4    17 1   
    11     4    18 1   
    12     4    19 1   
    13     5     6 1   
    14     5    20 1   
    15     5    21 1   
    16     6     7 1   
    17     7     8 1   
    18     7    22 1   
    19     7    23 1   
    20     8     9 1   
    21     8    10 1   
    22     8    24 1   
    23     9    25 1   
    24    10    26 1   
    25    10    27 1   
    26    10    28 1   
    27    11    12 1   
    28    11    13 1   
    29    11    29 1   
    30    12    30 1   
    31    13    31 1   
    32    13    32 1   
    33    13    33 1   
@<TRIPOS>SUBSTRUCTURE
     1 96H         1 TEMP              0 ****  ****    0 ROOT
