@<TRIPOS>MOLECULE
96I
   55    57     1     0     0
SMALL
No Charge or Current Charge


@<TRIPOS>ATOM
      1 C01        -45.2080    -6.7510    31.9240 c3         1 96I      -0.084100
      2 C03        -45.9020    -8.7760    30.5180 ca         1 96I       0.122700
      3 C04        -45.0260    -9.1050    29.4600 ca         1 96I      -0.229000
      4 C05        -44.3740    -8.0950    28.6790 cg         1 96I       0.344000
      5 C07        -44.7860   -10.4560    29.1810 ca         1 96I       0.716900
      6 C10        -44.6620   -13.2050    27.2630 c          1 96I       0.617100
      7 C13        -42.3160   -12.2270    26.9330 ca         1 96I      -0.114300
      8 C14        -42.4450   -11.7640    25.6060 ca         1 96I      -0.089000
      9 C15        -41.3230   -11.7110    24.7600 ca         1 96I      -0.108500
     10 C16        -40.0650   -12.1190    25.2320 ca         1 96I      -0.095000
     11 C20        -46.1480   -11.1650    30.8560 ca         1 96I       0.740900
     12 C02        -46.2040    -7.3110    30.8880 c3         1 96I      -0.053100
     13 C09        -43.5300   -12.2840    27.8590 c3         1 96I       0.202800
     14 C17        -39.9280   -12.5780    26.5530 ca         1 96I      -0.108500
     15 C18        -41.0490   -12.6310    27.4000 ca         1 96I      -0.089000
     16 C22        -45.7800   -13.4390    31.8680 c6         1 96I       0.221800
     17 C23        -45.9080   -14.6500    30.9030 c6         1 96I      -0.096400
     18 C24        -47.3300   -14.8030    30.3010 c6         1 96I       0.162500
     19 C26        -48.3900   -14.1550    31.2150 c6         1 96I      -0.096400
     20 C27        -48.1190   -12.6330    31.3410 c6         1 96I       0.221800
     21 C28        -46.4690    -9.8530    31.2380 ca         1 96I      -0.224000
     22 C29        -47.3280    -9.6330    32.3630 cg         1 96I       0.351000
     23 N06        -43.8350    -7.2840    28.0370 n1         1 96I      -0.481000
     24 N08        -43.9550   -10.8810    28.1640 nu         1 96I      -0.930100
     25 N19        -45.3260   -11.4600    29.8520 nb         1 96I      -0.852000
     26 N21        -46.6680   -12.3050    31.4860 nh         1 96I      -0.766300
     27 N30        -48.0280    -9.4360    33.2750 n1         1 96I      -0.484000
     28 O12        -44.6060   -14.4270    27.2520 o          1 96I      -0.605100
     29 H1         -45.4510    -5.7090    32.1650 hc         1 96I       0.043033
     30 H2         -45.2440    -7.3340    32.8520 hc         1 96I       0.043033
     31 H3         -44.1840    -6.7830    31.5350 hc         1 96I       0.043033
     32 H4         -43.4130   -11.4430    25.2280 ha         1 96I       0.116500
     33 H5         -41.4300   -11.3540    23.7380 ha         1 96I       0.118000
     34 H6         -39.1970   -12.0780    24.5770 ha         1 96I       0.117000
     35 H7         -46.1910    -6.6660    30.0010 hc         1 96I       0.062700
     36 H8         -47.2220    -7.2020    31.2810 hc         1 96I       0.062700
     37 H9         -43.2230   -12.7750    28.7930 h1         1 96I       0.093700
     38 H10        -38.9540   -12.8920    26.9210 ha         1 96I       0.118000
     39 H11        -40.9290   -12.9860    28.4220 ha         1 96I       0.116500
     40 H12        -46.0460   -13.7690    32.8830 h1         1 96I       0.064450
     41 H13        -44.7280   -13.1220    31.9220 h1         1 96I       0.064450
     42 H14        -45.6080   -15.5580    31.4440 hc         1 96I       0.062200
     43 H15        -45.1890   -14.5320    30.0820 hc         1 96I       0.062200
     44 H16        -47.3560   -14.2870    29.3290 h1         1 96I       0.016700
     45 H17        -49.4010   -14.3130    30.8170 hc         1 96I       0.062200
     46 H18        -48.3660   -14.6210    32.2090 hc         1 96I       0.062200
     47 H19        -48.5100   -12.1440    30.4350 h1         1 96I       0.064450
     48 H20        -48.6930   -12.2330    32.1900 h1         1 96I       0.064450
     49 H21        -43.4390   -10.1370    27.7010 hn         1 96I       0.515000
     50 H22        -46.4860   -13.1260    26.3240 hn         1 96I       0.316000
     51 H23        -45.7830   -11.5750    26.7610 hn         1 96I       0.316000
     52 H24        -48.5420   -16.2740    29.5480 hn         1 96I       0.396000
     53 H25        -46.9740   -16.5800    29.3520 hn         1 96I       0.396000
     54 N25        -47.6440   -16.2200    30.0410 n8         1 96I      -0.996200
     55 N11        -45.7330   -12.5810    26.7130 nt         1 96I      -0.596000
@<TRIPOS>BOND
     1     1    12 1   
     2     1    29 1   
     3     1    30 1   
     4     1    31 1   
     5     2     3 ar  
     6     2    12 1   
     7     2    21 ar  
     8     3     4 1   
     9     3     5 ar  
    10     4    23 3   
    11     5    24 1   
    12     5    25 ar  
    13     6    13 1   
    14     6    28 2   
    15     6    55 1   
    16     7     8 ar  
    17     7    13 1   
    18     7    15 ar  
    19     8     9 ar  
    20     8    32 1   
    21     9    10 ar  
    22     9    33 1   
    23    10    14 ar  
    24    10    34 1   
    25    11    21 ar  
    26    11    25 ar  
    27    11    26 1   
    28    12    35 1   
    29    12    36 1   
    30    13    24 1   
    31    13    37 1   
    32    14    15 ar  
    33    14    38 1   
    34    15    39 1   
    35    16    17 1   
    36    16    26 1   
    37    16    40 1   
    38    16    41 1   
    39    17    18 1   
    40    17    42 1   
    41    17    43 1   
    42    18    19 1   
    43    18    44 1   
    44    18    54 1   
    45    19    20 1   
    46    19    45 1   
    47    19    46 1   
    48    20    26 1   
    49    20    47 1   
    50    20    48 1   
    51    21    22 1   
    52    22    27 3   
    53    24    49 1   
    54    50    55 1   
    55    51    55 1   
    56    52    54 1   
    57    53    54 1   
@<TRIPOS>SUBSTRUCTURE
     1 96I         1 TEMP              0 ****  ****    0 ROOT
