@<TRIPOS>MOLECULE
96I
   55    57     1     0     0
SMALL
bcc


@<TRIPOS>ATOM
      1 C01        -45.5550    -6.9110    31.5370 c3         1 96I      -0.084100
      2 C03        -46.0760    -9.0470    30.3410 ca         1 96I       0.122700
      3 C04        -45.2110    -9.2740    29.2760 ca         1 96I      -0.294300
      4 C05        -44.8280    -8.2340    28.3990 cg         1 96I       0.254800
      5 C07        -44.6660   -10.5790    29.1110 ca         1 96I       0.782200
      6 C10        -43.9860   -13.2430    27.6120 c          1 96I       0.684100
      7 C13        -41.9250   -12.0030    27.0720 ca         1 96I      -0.114300
      8 C14        -42.1230   -11.5230    25.7790 ca         1 96I      -0.107000
      9 C15        -41.0650   -11.4660    24.8830 ca         1 96I      -0.126500
     10 C16        -39.8020   -11.8990    25.2650 ca         1 96I      -0.113000
     11 C20        -45.9650   -11.4380    30.8090 ca         1 96I       0.806200
     12 C02        -46.5520    -7.6590    30.6490 c3         1 96I      -0.053100
     13 C09        -43.0710   -12.0940    28.0540 c3         1 96I       0.202800
     14 C17        -39.6010   -12.3850    26.5500 ca         1 96I      -0.126500
     15 C18        -40.6580   -12.4350    27.4480 ca         1 96I      -0.107000
     16 C22        -45.7640   -13.8360    31.1990 c6         1 96I       0.221800
     17 C23        -46.5810   -14.6910    30.2300 c6         1 96I      -0.096400
     18 C24        -48.0830   -14.4320    30.4020 c6         1 96I       0.162500
     19 C26        -48.3440   -13.9940    31.8370 c6         1 96I      -0.096400
     20 C27        -47.6970   -12.6330    32.1000 c6         1 96I       0.221800
     21 C28        -46.4290   -10.1290    31.1530 ca         1 96I      -0.289300
     22 C29        -47.0940    -9.8540    32.3720 cg         1 96I       0.261800
     23 N06        -44.4890    -7.4130    27.6600 n1         1 96I      -0.391800
     24 N08        -43.7470   -10.8210    28.1560 nu         1 96I      -0.874900
     25 N19        -45.0540   -11.5970    29.8490 nb         1 96I      -0.852000
     26 N21        -46.4000   -12.5460    31.4270 nh         1 96I      -0.766300
     27 N30        -47.5920    -9.5830    33.3790 n1         1 96I      -0.394800
     28 O12        -43.6900   -14.3890    27.9070 o          1 96I      -0.605100
     29 H1         -45.9340    -5.9160    31.7650 hc         1 96I       0.043033
     30 H2         -45.3910    -7.4320    32.4800 hc         1 96I       0.043033
     31 H3         -44.5910    -6.7980    31.0410 hc         1 96I       0.043033
     32 H4         -43.1030   -11.1900    25.4590 ha         1 96I       0.134500
     33 H5         -41.2290   -11.0870    23.8830 ha         1 96I       0.136000
     34 H6         -38.9780   -11.8560    24.5650 ha         1 96I       0.135000
     35 H7         -46.6970    -7.1090    29.7180 hc         1 96I       0.062700
     36 H8         -47.5260    -7.6970    31.1370 hc         1 96I       0.062700
     37 H9         -42.6750   -12.3890    29.0300 h1         1 96I       0.093700
     38 H10        -38.6200   -12.7220    26.8560 ha         1 96I       0.136000
     39 H11        -40.4950   -12.8080    28.4520 ha         1 96I       0.134500
     40 H12        -45.6960   -14.3300    32.1710 h1         1 96I       0.064450
     41 H13        -44.7480   -13.6910    30.8450 h1         1 96I       0.064450
     42 H14        -46.3740   -15.7430    30.4400 hc         1 96I       0.062200
     43 H15        -46.2800   -14.5000    29.1990 hc         1 96I       0.062200
     44 H16        -48.3590   -13.5890    29.7480 h1         1 96I       0.016700
     45 H17        -49.4150   -13.8950    32.0290 hc         1 96I       0.062200
     46 H18        -47.9700   -14.7540    32.5270 hc         1 96I       0.062200
     47 H19        -48.3500   -11.8620    31.6920 h1         1 96I       0.064450
     48 H20        -47.6000   -12.4590    33.1730 h1         1 96I       0.064450
     49 H21        -43.3300   -10.0360    27.6780 hn         1 96I       0.459800
     50 H22        -45.6560   -13.6190    26.5080 hn         1 96I       0.316000
     51 H23        -45.2640   -11.9490    26.6540 hn         1 96I       0.316000
     52 H24        -49.8290   -15.4120    30.0720 hn         1 96I       0.340800
     53 H25        -48.6150   -15.9400    29.1520 hn         1 96I       0.340800
     54 N25        -48.8410   -15.6340    30.0910 n8         1 96I      -0.885800
     55 N11        -45.0320   -12.9070    26.8510 nt         1 96I      -0.663000
@<TRIPOS>BOND
     1     1    12 1   
     2     1    29 1   
     3     1    30 1   
     4     1    31 1   
     5     2     3 ar  
     6     2    12 1   
     7     2    21 ar  
     8     3     4 1   
     9     3     5 ar  
    10     4    23 3   
    11     5    24 1   
    12     5    25 ar  
    13     6    13 1   
    14     6    28 2   
    15     6    55 1   
    16     7     8 ar  
    17     7    13 1   
    18     7    15 ar  
    19     8     9 ar  
    20     8    32 1   
    21     9    10 ar  
    22     9    33 1   
    23    10    14 ar  
    24    10    34 1   
    25    11    21 ar  
    26    11    25 ar  
    27    11    26 1   
    28    12    35 1   
    29    12    36 1   
    30    13    24 1   
    31    13    37 1   
    32    14    15 ar  
    33    14    38 1   
    34    15    39 1   
    35    16    17 1   
    36    16    26 1   
    37    16    40 1   
    38    16    41 1   
    39    17    18 1   
    40    17    42 1   
    41    17    43 1   
    42    18    19 1   
    43    18    44 1   
    44    18    54 1   
    45    19    20 1   
    46    19    45 1   
    47    19    46 1   
    48    20    26 1   
    49    20    47 1   
    50    20    48 1   
    51    21    22 1   
    52    22    27 3   
    53    24    49 1   
    54    50    55 1   
    55    51    55 1   
    56    52    54 1   
    57    53    54 1   
@<TRIPOS>SUBSTRUCTURE
     1 96I         1 TEMP              0 ****  ****    0 ROOT
