@<TRIPOS>MOLECULE
96J
   33    34     1     0     0
SMALL
abcg2


@<TRIPOS>ATOM
      1 C6          -0.4110     0.3090    -0.8030 c          1 96J       0.677100
      2 C9           3.8580    -1.3670     0.1090 cc         1 96J       0.371300
      3 C10         -3.6100    -0.0150    -0.3070 ca         1 96J      -0.293500
      4 C3           3.0780    -0.1840     0.2520 cc         1 96J      -0.193900
      5 C2           1.8170    -0.3430    -0.2530 cd         1 96J      -0.051400
      6 C14         -3.9150     0.3010     1.0120 ca         1 96J      -0.021000
      7 C16         -4.5000    -0.6540     1.8330 ca         1 96J      -0.093300
      8 C18         -3.8770    -1.2620    -0.8470 ca         1 96J       0.010000
      9 C19         -4.4690    -2.2130    -0.0270 ca         1 96J      -0.126000
     10 C20         -4.7710    -1.9120     1.2910 ca         1 96J      -0.050000
     11 C21         -4.8520    -0.3360     3.2550 c3         1 96J      -0.048800
     12 N4          -1.3020     1.3460    -0.7330 ns         1 96J      -0.583300
     13 N5           0.8160     0.5890    -0.2760 ns         1 96J      -0.372100
     14 N8           3.2340    -2.3580    -0.4640 nd         1 96J      -0.547100
     15 O13         -0.6790    -0.7730    -1.2810 o          1 96J      -0.583100
     16 S1          -2.8750     1.2320    -1.3120 sy         1 96J       1.195300
     17 S7           1.6790    -1.9440    -0.8710 ss         1 96J       0.417100
     18 BR15         3.7000     1.3920     1.0360 br         1 96J      -0.060100
     19 H1          -3.6960     1.2840     1.4100 ha         1 96J       0.124000
     20 H2           5.9160    -0.7860     0.0610 hc         1 96J       0.059700
     21 H3           5.3560    -1.3270     1.6370 hc         1 96J       0.059700
     22 H4           5.6380    -2.5070     0.3510 hc         1 96J       0.059700
     23 H5          -3.6310    -1.4960    -1.8720 ha         1 96J       0.150000
     24 H6          -4.6910    -3.1950    -0.4220 ha         1 96J       0.124000
     25 H7          -5.2280    -2.6710     1.9160 ha         1 96J       0.117000
     26 H8          -5.9190    -0.1280     3.3520 hc         1 96J       0.046700
     27 H9          -4.6250    -1.1730     3.9150 hc         1 96J       0.046700
     28 H10         -4.3110     0.5370     3.6160 hc         1 96J       0.046700
     29 H11         -1.0650     2.2200    -0.2770 hn         1 96J       0.348500
     30 H12          1.0120     1.5060     0.1050 hn         1 96J       0.342500
     31 C17          5.2700    -1.5060     0.5640 c3         1 96J      -0.130400
     32 O11         -2.8420     0.7830    -2.6860 o          1 96J      -0.520000
     33 O12         -3.4420     2.5240    -0.9800 o          1 96J      -0.520000
@<TRIPOS>BOND
     1     1    12 1   
     2     1    13 1   
     3     1    15 2   
     4     2     4 1   
     5     2    14 2   
     6     2    31 1   
     7     3     6 ar  
     8     3     8 ar  
     9     3    16 1   
    10     4     5 2   
    11     4    18 1   
    12     5    13 1   
    13     5    17 1   
    14     6     7 ar  
    15     6    19 1   
    16     7    10 ar  
    17     7    11 1   
    18     8     9 ar  
    19     8    23 1   
    20     9    10 ar  
    21     9    24 1   
    22    10    25 1   
    23    11    26 1   
    24    11    27 1   
    25    11    28 1   
    26    12    16 1   
    27    12    29 1   
    28    13    30 1   
    29    14    17 1   
    30    16    32 2   
    31    16    33 2   
    32    20    31 1   
    33    21    31 1   
    34    22    31 1   
@<TRIPOS>SUBSTRUCTURE
     1 96J         1 TEMP              0 ****  ****    0 ROOT
