@<TRIPOS>MOLECULE
96J
   33    34     1     0     0
SMALL
No Charge or Current Charge


@<TRIPOS>ATOM
      1 C6          -0.3790     0.1110    -0.8960 c          1 96J       0.677100
      2 C9           4.0560    -1.3740     0.0160 cc         1 96J       0.371300
      3 C10         -3.6490     0.0680    -0.2120 ca         1 96J      -0.293500
      4 C3           3.1740    -0.2630     0.1510 cc         1 96J      -0.193900
      5 C2           1.9570    -0.5710    -0.3770 cd         1 96J      -0.051400
      6 C14         -4.0590     0.3560     1.1070 ca         1 96J      -0.021000
      7 C16         -4.7250    -0.6200     1.8740 ca         1 96J      -0.093300
      8 C18         -3.9050    -1.2060    -0.7620 ca         1 96J       0.010000
      9 C19         -4.5720    -2.1770     0.0040 ca         1 96J      -0.126000
     10 C20         -4.9820    -1.8860     1.3160 ca         1 96J      -0.050000
     11 C21         -5.1690    -0.3040     3.2950 c3         1 96J      -0.048800
     12 N4          -1.1830     1.1860    -0.7350 ns         1 96J      -0.583300
     13 N5           0.8860     0.3160    -0.3930 ns         1 96J      -0.372100
     14 N8           3.6100    -2.4780    -0.5610 nd         1 96J      -0.547100
     15 O13         -0.7370    -0.9260    -1.4250 o          1 96J      -0.583100
     16 S1          -2.7880     1.3200    -1.1840 sy         1 96J       1.195300
     17 S7           2.0020    -2.2300    -1.0050 ss         1 96J       0.417100
     18 Br15         3.6140     1.4010     0.9440 br         1 96J      -0.060100
     19 H1          -3.8630     1.3350     1.5420 ha         1 96J       0.124000
     20 H2           6.0140    -0.4870     0.0210 hc         1 96J       0.059700
     21 H3           5.4830    -1.1000     1.6010 hc         1 96J       0.059700
     22 H4           6.0120    -2.2290     0.3420 hc         1 96J       0.059700
     23 H5          -3.5880    -1.4510    -1.7750 ha         1 96J       0.150000
     24 H6          -4.7700    -3.1590    -0.4210 ha         1 96J       0.124000
     25 H7          -5.4990    -2.6460     1.8980 ha         1 96J       0.117000
     26 H8          -6.1600     0.1640     3.2990 hc         1 96J       0.046700
     27 H9          -5.2250    -1.2110     3.9090 hc         1 96J       0.046700
     28 H10         -4.4710     0.3830     3.7880 hc         1 96J       0.046700
     29 H11         -0.8610     2.0160    -0.2700 hn         1 96J       0.348500
     30 H12          1.0280     1.2320     0.0120 hn         1 96J       0.342500
     31 C17          5.4680    -1.2940     0.5220 c3         1 96J      -0.130400
     32 O11         -2.8560     0.9490    -2.6030 o          1 96J      -0.520000
     33 O12         -3.2000     2.6480    -0.7200 o          1 96J      -0.520000
@<TRIPOS>BOND
     1     1    12 1   
     2     1    13 1   
     3     1    15 2   
     4     2     4 1   
     5     2    14 2   
     6     2    31 1   
     7     3     6 ar  
     8     3     8 ar  
     9     3    16 1   
    10     4     5 2   
    11     4    18 1   
    12     5    13 1   
    13     5    17 1   
    14     6     7 ar  
    15     6    19 1   
    16     7    10 ar  
    17     7    11 1   
    18     8     9 ar  
    19     8    23 1   
    20     9    10 ar  
    21     9    24 1   
    22    10    25 1   
    23    11    26 1   
    24    11    27 1   
    25    11    28 1   
    26    12    16 1   
    27    12    29 1   
    28    13    30 1   
    29    14    17 1   
    30    16    32 2   
    31    16    33 2   
    32    20    31 1   
    33    21    31 1   
    34    22    31 1   
@<TRIPOS>SUBSTRUCTURE
     1 96J         1 TEMP              0 ****  ****    0 ROOT
