@<TRIPOS>MOLECULE
96K
   41    40     1     0     0
SMALL
No Charge or Current Charge


@<TRIPOS>ATOM
      1 N1           2.0420     0.0060     0.0620 n3         1 96K      -0.733600
      2 C2           0.7250     0.4930    -0.4480 c3         1 96K       0.175800
      3 C3          -0.5200    -0.2630     0.0800 c3         1 96K      -0.078400
      4 C4          -1.8470     0.4370    -0.2910 c3         1 96K      -0.075400
      5 C5          -3.0930    -0.3150     0.2270 c3         1 96K      -0.074400
      6 C6          -4.4190     0.3850    -0.1440 c3         1 96K      -0.081400
      7 C7          -5.6610    -0.3670     0.3750 c3         1 96K       0.163600
      8 C9           2.2970    -1.4250    -0.2800 c3         1 96K       0.172800
      9 C10          3.5420    -2.0620     0.3840 c3         1 96K      -0.077900
     10 C12          3.1730     0.9000    -0.3270 c3         1 96K       0.172800
     11 O8          -6.8470     0.3380    -0.0050 oh         1 96K      -0.662000
     12 C13          3.0770     2.3610     0.1760 c3         1 96K      -0.077900
     13 C14          4.3760     3.1590    -0.0510 c3         1 96K      -0.090100
     14 C11          3.6120    -3.5890     0.1840 c3         1 96K      -0.090100
     15 H1           0.5840     1.5410    -0.1590 h1         1 96K       0.028200
     16 H2          -0.5410    -1.2800    -0.3280 hc         1 96K       0.045700
     17 H3          -1.8440     1.4550     0.1190 hc         1 96K       0.038700
     18 H4          -3.0960    -1.3330    -0.1830 hc         1 96K       0.037700
     19 H5          -4.4180     1.4020     0.2680 hc         1 96K       0.052200
     20 H6          -4.4860     0.4790    -1.2350 hc         1 96K       0.052200
     21 H7          -5.6720    -1.3820    -0.0440 h1         1 96K       0.015200
     22 H8          -5.6040    -0.4520     1.4680 h1         1 96K       0.015200
     23 H9           1.4430    -2.0360     0.0360 h1         1 96K       0.028450
     24 H10          4.4570    -1.6230    -0.0300 hc         1 96K       0.045450
     25 H11          4.1110     0.5030     0.0810 h1         1 96K       0.028450
     26 H12         -7.6080    -0.1760     0.3450 ho         1 96K       0.442000
     27 H13          2.2620     2.8840    -0.3370 hc         1 96K       0.045450
     28 H14          5.2150     2.6960     0.4840 hc         1 96K       0.031367
     29 H15          4.6250     3.1980    -1.1180 hc         1 96K       0.031367
     30 H16          4.2620     4.1870     0.3140 hc         1 96K       0.031367
     31 H17          3.6490    -3.8390    -0.8830 hc         1 96K       0.031367
     32 H18          4.5090    -3.9970     0.6640 hc         1 96K       0.031367
     33 H19          2.7350    -4.0790     0.6250 hc         1 96K       0.031367
     34 H20          0.7140     0.4610    -1.5460 h1         1 96K       0.028200
     35 H21         -0.4510    -0.3480     1.1710 hc         1 96K       0.045700
     36 H22         -1.9100     0.5310    -1.3830 hc         1 96K       0.038700
     37 H23         -3.0280    -0.4090     1.3180 hc         1 96K       0.037700
     38 H24          2.3830    -1.5400    -1.3700 h1         1 96K       0.028450
     39 H25          3.5300    -1.8440     1.4590 hc         1 96K       0.045450
     40 H26          3.2820     0.9120    -1.4200 h1         1 96K       0.028450
     41 H27          2.8420     2.3600     1.2480 hc         1 96K       0.045450
@<TRIPOS>BOND
     1     1     2 1   
     2     1     8 1   
     3     1    10 1   
     4     2     3 1   
     5     2    15 1   
     6     2    34 1   
     7     3     4 1   
     8     3    16 1   
     9     3    35 1   
    10     4     5 1   
    11     4    17 1   
    12     4    36 1   
    13     5     6 1   
    14     5    18 1   
    15     5    37 1   
    16     6     7 1   
    17     6    19 1   
    18     6    20 1   
    19     7    11 1   
    20     7    21 1   
    21     7    22 1   
    22     8     9 1   
    23     8    23 1   
    24     8    38 1   
    25     9    14 1   
    26     9    24 1   
    27     9    39 1   
    28    10    12 1   
    29    10    25 1   
    30    10    40 1   
    31    11    26 1   
    32    12    13 1   
    33    12    27 1   
    34    12    41 1   
    35    13    28 1   
    36    13    29 1   
    37    13    30 1   
    38    14    31 1   
    39    14    32 1   
    40    14    33 1   
@<TRIPOS>SUBSTRUCTURE
     1 96K         1 TEMP              0 ****  ****    0 ROOT
