@<TRIPOS>MOLECULE
96K
   41    40     1     0     0
SMALL
abcg2


@<TRIPOS>ATOM
      1 N1           1.9890     0.0030    -0.0760 n3         1 96K      -0.733600
      2 C2           0.7030     0.4410    -0.5900 c3         1 96K       0.175800
      3 C3          -0.4920    -0.1530     0.1430 c3         1 96K      -0.078400
      4 C4          -1.8140     0.3900    -0.3850 c3         1 96K      -0.075400
      5 C5          -3.0270    -0.2290     0.2970 c3         1 96K      -0.074400
      6 C6          -4.3490     0.3130    -0.2330 c3         1 96K      -0.081400
      7 C7          -5.5410    -0.3310     0.4470 c3         1 96K       0.163600
      8 C9           2.3000    -1.3770    -0.4150 c3         1 96K       0.172800
      9 C10          3.2700    -2.0180     0.5700 c3         1 96K      -0.077900
     10 C12          3.0550     0.9110    -0.4760 c3         1 96K       0.172800
     11 O8          -6.7300     0.2130    -0.0870 oh         1 96K      -0.662000
     12 C13          3.1760     2.1310     0.4270 c3         1 96K      -0.077900
     13 C14          4.2790     3.0730    -0.0360 c3         1 96K      -0.090100
     14 C11          3.6370    -3.4400     0.1700 c3         1 96K      -0.090100
     15 H1           0.6480     1.5280    -0.4840 h1         1 96K       0.028200
     16 H2          -0.4990    -1.2440     0.0500 hc         1 96K       0.045700
     17 H3          -1.8400     1.4780    -0.2570 hc         1 96K       0.038700
     18 H4          -2.9980    -1.3160     0.1660 hc         1 96K       0.037700
     19 H5          -4.3860     1.3970    -0.0850 hc         1 96K       0.052200
     20 H6          -4.4080     0.1400    -1.3120 hc         1 96K       0.052200
     21 H7          -5.4970    -1.4180     0.2990 h1         1 96K       0.015200
     22 H8          -5.4740    -0.1600     1.5300 h1         1 96K       0.015200
     23 H9           1.3780    -1.9620    -0.4060 h1         1 96K       0.028450
     24 H10          4.1800    -1.4180     0.6490 hc         1 96K       0.045450
     25 H11          4.0060     0.3720    -0.4430 h1         1 96K       0.028450
     26 H12         -7.4750    -0.1970     0.3630 ho         1 96K       0.442000
     27 H13          2.2270     2.6740     0.4600 hc         1 96K       0.045450
     28 H14          5.2430     2.5620    -0.0780 hc         1 96K       0.031367
     29 H15          4.0730     3.4670    -1.0320 hc         1 96K       0.031367
     30 H16          4.3860     3.9230     0.6380 hc         1 96K       0.031367
     31 H17          4.0960    -3.4660    -0.8200 hc         1 96K       0.031367
     32 H18          4.3460    -3.8800     0.8730 hc         1 96K       0.031367
     33 H19          2.7580    -4.0860     0.1430 hc         1 96K       0.031367
     34 H20          0.6080     0.2400    -1.6720 h1         1 96K       0.028200
     35 H21         -0.3980     0.0640     1.2110 hc         1 96K       0.045700
     36 H22         -1.8770     0.2110    -1.4640 hc         1 96K       0.038700
     37 H23         -2.9650    -0.0540     1.3770 hc         1 96K       0.037700
     38 H24          2.6970    -1.4640    -1.4410 h1         1 96K       0.028450
     39 H25          2.8120    -2.0140     1.5620 hc         1 96K       0.045450
     40 H26          2.9330     1.2330    -1.5240 h1         1 96K       0.028450
     41 H27          3.3740     1.7920     1.4470 hc         1 96K       0.045450
@<TRIPOS>BOND
     1     1     2 1   
     2     1     8 1   
     3     1    10 1   
     4     2     3 1   
     5     2    15 1   
     6     2    34 1   
     7     3     4 1   
     8     3    16 1   
     9     3    35 1   
    10     4     5 1   
    11     4    17 1   
    12     4    36 1   
    13     5     6 1   
    14     5    18 1   
    15     5    37 1   
    16     6     7 1   
    17     6    19 1   
    18     6    20 1   
    19     7    11 1   
    20     7    21 1   
    21     7    22 1   
    22     8     9 1   
    23     8    23 1   
    24     8    38 1   
    25     9    14 1   
    26     9    24 1   
    27     9    39 1   
    28    10    12 1   
    29    10    25 1   
    30    10    40 1   
    31    11    26 1   
    32    12    13 1   
    33    12    27 1   
    34    12    41 1   
    35    13    28 1   
    36    13    29 1   
    37    13    30 1   
    38    14    31 1   
    39    14    32 1   
    40    14    33 1   
@<TRIPOS>SUBSTRUCTURE
     1 96K         1 TEMP              0 ****  ****    0 ROOT
