@<TRIPOS>MOLECULE
96M
   62    65     1     0     0
SMALL
No Charge or Current Charge


@<TRIPOS>ATOM
      1 C01          9.7950     0.6240     2.6060 c3         1 96M      -0.089600
      2 C02          9.5640    -0.0680     1.2460 c3         1 96M       0.174800
      3 N03          9.4020     0.8510     0.0830 n3         1 96M      -0.724600
      4 C04         10.5980     1.7130    -0.1440 c3         1 96M       0.174800
      5 C05         10.4150     2.8280    -1.1960 c3         1 96M      -0.089600
      6 C06          8.9600     0.1330    -1.1600 c3         1 96M       0.170800
      7 C07          7.6300    -0.6710    -1.0830 c3         1 96M       0.165600
      8 O08          6.5640     0.2160    -0.6880 os         1 96M      -0.326100
      9 C09          5.2650    -0.2200    -0.5330 ca         1 96M       0.136100
     10 C10          4.3010     0.7190    -0.1320 ca         1 96M      -0.157000
     11 C11          2.9590     0.3340     0.0430 ca         1 96M      -0.090500
     12 C12          2.5600    -0.9990    -0.1900 ca         1 96M       0.256000
     13 N13          1.2370    -1.4320    -0.0160 nu         1 96M      -0.915900
     14 C14         -0.0060    -0.8190    -0.0740 ca         1 96M       0.431900
     15 N15         -1.0240    -1.6050     0.3010 nb         1 96M      -0.314000
     16 C16         -2.2590    -1.0650     0.2550 ca         1 96M       0.311900
     17 C17         -2.4590     0.2500    -0.1760 ca         1 96M      -0.299800
     18 C18         -1.3220     0.9850    -0.5530 ca         1 96M       0.205900
     19 N19         -0.0890     0.4510    -0.5050 nb         1 96M      -0.248000
     20 C20         -3.7870     0.8380    -0.2360 cc         1 96M      -0.016200
     21 C21         -4.8630     0.0710     0.1760 cd         1 96M      -0.168400
     22 C22         -4.6980    -1.3700     0.5650 c          1 96M       0.585200
     23 O23         -5.6610    -2.0940     0.7900 o          1 96M      -0.523000
     24 N24         -3.3770    -1.8640     0.6350 n          1 96M      -0.360300
     25 C25         -3.1500    -3.2690     1.0780 c3         1 96M       0.082300
     26 C26         -6.2360     0.6210     0.0660 ca         1 96M      -0.016800
     27 C27         -7.0890     0.6590     1.1990 ca         1 96M       0.145000
     28 Cl28        -6.5230     0.1700     2.8000 cl         1 96M      -0.189500
     29 C29         -8.3900     1.1810     1.1000 ca         1 96M      -0.106000
     30 C30         -8.8660     1.6730    -0.1240 ca         1 96M      -0.089000
     31 C31         -8.0320     1.6500    -1.2510 ca         1 96M      -0.106000
     32 C32         -6.7270     1.1350    -1.1630 ca         1 96M       0.145000
     33 Cl33        -5.7760     1.0700    -2.6500 cl         1 96M      -0.189500
     34 C34          3.5330    -1.9400    -0.5770 ca         1 96M      -0.090500
     35 C35          4.8770    -1.5590    -0.7540 ca         1 96M      -0.157000
     36 H011         9.0350     1.3940     2.7830 hc         1 96M       0.038033
     37 H013         9.7290    -0.1120     3.4160 hc         1 96M       0.038033
     38 H012        10.7870     1.0860     2.6600 hc         1 96M       0.038033
     39 H021        10.3930    -0.7660     1.0620 h1         1 96M       0.025700
     40 H022         8.6580    -0.6730     1.3680 h1         1 96M       0.025700
     41 H042        10.8710     2.2220     0.7880 h1         1 96M       0.025700
     42 H041        11.4580     1.0950    -0.4340 h1         1 96M       0.025700
     43 H051        10.3490     2.4180    -2.2100 hc         1 96M       0.038033
     44 H052         9.5100     3.4110    -0.9890 hc         1 96M       0.038033
     45 H053        11.2740     3.5090    -1.1700 hc         1 96M       0.038033
     46 H062         8.8270     0.8490    -1.9790 h1         1 96M       0.043200
     47 H061         9.7500    -0.5610    -1.4800 h1         1 96M       0.043200
     48 H072         7.4230    -1.0990    -2.0730 h1         1 96M       0.033700
     49 H071         7.7330    -1.5010    -0.3730 h1         1 96M       0.033700
     50 H101         4.5980     1.7480     0.0510 ha         1 96M       0.124000
     51 H111         2.2420     1.0750     0.3790 ha         1 96M       0.125000
     52 H131         1.1470    -2.4390     0.1160 hn         1 96M       0.512000
     53 H181        -1.3960     2.0140    -0.9010 h4         1 96M       0.027100
     54 H201        -3.9370     1.8670    -0.5590 ha         1 96M       0.195000
     55 H252        -4.0380    -3.6910     1.5650 h1         1 96M       0.059033
     56 H253        -2.8920    -3.8900     0.2110 h1         1 96M       0.059033
     57 H251        -2.3270    -3.3070     1.8030 h1         1 96M       0.059033
     58 H291        -9.0260     1.2160     1.9810 ha         1 96M       0.133500
     59 H301        -9.8740     2.0750    -0.1970 ha         1 96M       0.122000
     60 H311        -8.4010     2.0250    -2.2030 ha         1 96M       0.133500
     61 H341         3.2460    -2.9730    -0.7510 ha         1 96M       0.125000
     62 H351         5.5960    -2.3120    -1.0610 ha         1 96M       0.124000
@<TRIPOS>BOND
     1     1     2 1   
     2     1    36 1   
     3     1    37 1   
     4     1    38 1   
     5     2     3 1   
     6     2    39 1   
     7     2    40 1   
     8     3     4 1   
     9     3     6 1   
    10     4     5 1   
    11     4    41 1   
    12     4    42 1   
    13     5    43 1   
    14     5    44 1   
    15     5    45 1   
    16     6     7 1   
    17     6    46 1   
    18     6    47 1   
    19     7     8 1   
    20     7    48 1   
    21     7    49 1   
    22     8     9 1   
    23     9    10 ar  
    24     9    35 ar  
    25    10    11 ar  
    26    10    50 1   
    27    11    12 ar  
    28    11    51 1   
    29    12    13 1   
    30    12    34 ar  
    31    13    14 1   
    32    13    52 1   
    33    14    15 ar  
    34    14    19 ar  
    35    15    16 ar  
    36    16    17 ar  
    37    16    24 1   
    38    17    18 ar  
    39    17    20 1   
    40    18    19 ar  
    41    18    53 1   
    42    20    21 2   
    43    20    54 1   
    44    21    22 1   
    45    21    26 1   
    46    22    23 2   
    47    22    24 1   
    48    24    25 1   
    49    25    55 1   
    50    25    56 1   
    51    25    57 1   
    52    26    27 ar  
    53    26    32 ar  
    54    27    28 1   
    55    27    29 ar  
    56    29    30 ar  
    57    29    58 1   
    58    30    31 ar  
    59    30    59 1   
    60    31    32 ar  
    61    31    60 1   
    62    32    33 1   
    63    34    35 ar  
    64    34    61 1   
    65    35    62 1   
@<TRIPOS>SUBSTRUCTURE
     1 96M         1 TEMP              0 ****  ****    0 ROOT
