@<TRIPOS>MOLECULE
96M
   62    65     1     0     0
SMALL
abcg2


@<TRIPOS>ATOM
      1 C01         10.2840     0.0040     2.1840 c3         1 96M      -0.089600
      2 C02         10.0930    -0.3540     0.7190 c3         1 96M       0.174800
      3 N03          9.3300     0.6390    -0.0200 n3         1 96M      -0.724600
      4 C04         10.0810     1.8580    -0.2770 c3         1 96M       0.174800
      5 C05          9.1790     3.0660    -0.4720 c3         1 96M      -0.089600
      6 C06          8.7650     0.0810    -1.2340 c3         1 96M       0.170800
      7 C07          7.4780    -0.6790    -1.0020 c3         1 96M       0.165600
      8 O08          6.4830     0.2430    -0.5950 os         1 96M      -0.326100
      9 C09          5.2370    -0.2140    -0.3710 ca         1 96M       0.136100
     10 C10          4.2780     0.7360    -0.0130 ca         1 96M      -0.157000
     11 C11          2.9680     0.3720     0.2360 ca         1 96M      -0.090500
     12 C12          2.5730    -0.9620     0.1160 ca         1 96M       0.256000
     13 N13          1.2760    -1.4190     0.3880 nu         1 96M      -0.915900
     14 C14          0.0890    -0.8120     0.1820 ca         1 96M       0.431900
     15 N15         -0.9790    -1.5360     0.5220 nb         1 96M      -0.314000
     16 C16         -2.1630    -0.9840     0.3390 ca         1 96M       0.311900
     17 C17         -2.3080     0.3120    -0.1900 ca         1 96M      -0.299800
     18 C18         -1.1170     0.9600    -0.5110 ca         1 96M       0.205900
     19 N19          0.0690     0.4240    -0.3370 nb         1 96M      -0.248000
     20 C20         -3.6050     0.8570    -0.3580 cc         1 96M      -0.016200
     21 C21         -4.6910     0.1350    -0.0130 cd         1 96M      -0.168400
     22 C22         -4.5640    -1.2160     0.5210 c          1 96M       0.585200
     23 O23         -5.5350    -1.8920     0.8150 o          1 96M      -0.523000
     24 N24         -3.2710    -1.7070     0.6780 n          1 96M      -0.360300
     25 C25         -3.0790    -3.0480     1.2170 c3         1 96M       0.082300
     26 C26         -6.0610     0.6570    -0.1650 ca         1 96M      -0.016800
     27 C27         -6.7780     1.1330     0.9310 ca         1 96M       0.145000
     28 CL28        -6.0360     1.0950     2.4930 cl         1 96M      -0.189500
     29 C29         -8.0600     1.6430     0.8140 ca         1 96M      -0.106000
     30 C30         -8.6550     1.6820    -0.4370 ca         1 96M      -0.089000
     31 C31         -7.9810     1.2140    -1.5520 ca         1 96M      -0.106000
     32 C32         -6.7000     0.7040    -1.4020 ca         1 96M       0.145000
     33 CL33        -5.8840     0.0970    -2.8010 cl         1 96M      -0.189500
     34 C34          3.5310    -1.9070    -0.2340 ca         1 96M      -0.090500
     35 C35          4.8510    -1.5480    -0.4690 ca         1 96M      -0.157000
     36 H011         9.3210     0.1880     2.6610 hc         1 96M       0.038033
     37 H013        10.7730    -0.8170     2.7110 hc         1 96M       0.038033
     38 H012        10.9040     0.8900     2.3240 hc         1 96M       0.038033
     39 H021        11.0720    -0.5490     0.2480 h1         1 96M       0.025700
     40 H022         9.5510    -1.3010     0.6750 h1         1 96M       0.025700
     41 H042        10.7310     2.0530     0.5780 h1         1 96M       0.025700
     42 H041        10.7540     1.7450    -1.1430 h1         1 96M       0.025700
     43 H051         8.5200     2.9570    -1.3330 hc         1 96M       0.038033
     44 H052         8.5540     3.2200     0.4080 hc         1 96M       0.038033
     45 H053         9.7750     3.9660    -0.6290 hc         1 96M       0.038033
     46 H062         8.5600     0.8820    -1.9480 h1         1 96M       0.043200
     47 H061         9.4670    -0.5980    -1.7450 h1         1 96M       0.043200
     48 H072         7.1830    -1.1760    -1.9340 h1         1 96M       0.033700
     49 H071         7.6110    -1.4580    -0.2440 h1         1 96M       0.033700
     50 H101         4.5700     1.7750     0.0790 ha         1 96M       0.124000
     51 H111         2.2590     1.1330     0.5210 ha         1 96M       0.125000
     52 H131         1.2000    -2.3790     0.6880 hn         1 96M       0.512000
     53 H181        -1.1490     1.9590    -0.9340 h4         1 96M       0.027100
     54 H201        -3.7110     1.8570    -0.7610 ha         1 96M       0.195000
     55 H252        -4.0450    -3.4700     1.4590 h1         1 96M       0.059033
     56 H253        -2.5830    -3.6820     0.4850 h1         1 96M       0.059033
     57 H251        -2.4690    -3.0090     2.1160 h1         1 96M       0.059033
     58 H291        -8.5860     2.0060     1.6870 ha         1 96M       0.133500
     59 H301        -9.6540     2.0830    -0.5440 ha         1 96M       0.122000
     60 H311        -8.4470     1.2420    -2.5270 ha         1 96M       0.133500
     61 H341         3.2490    -2.9490    -0.3260 ha         1 96M       0.125000
     62 H351         5.5550    -2.3250    -0.7350 ha         1 96M       0.124000
@<TRIPOS>BOND
     1     1     2 1   
     2     1    36 1   
     3     1    37 1   
     4     1    38 1   
     5     2     3 1   
     6     2    39 1   
     7     2    40 1   
     8     3     4 1   
     9     3     6 1   
    10     4     5 1   
    11     4    41 1   
    12     4    42 1   
    13     5    43 1   
    14     5    44 1   
    15     5    45 1   
    16     6     7 1   
    17     6    46 1   
    18     6    47 1   
    19     7     8 1   
    20     7    48 1   
    21     7    49 1   
    22     8     9 1   
    23     9    10 ar  
    24     9    35 ar  
    25    10    11 ar  
    26    10    50 1   
    27    11    12 ar  
    28    11    51 1   
    29    12    13 1   
    30    12    34 ar  
    31    13    14 1   
    32    13    52 1   
    33    14    15 ar  
    34    14    19 ar  
    35    15    16 ar  
    36    16    17 ar  
    37    16    24 1   
    38    17    18 ar  
    39    17    20 1   
    40    18    19 ar  
    41    18    53 1   
    42    20    21 2   
    43    20    54 1   
    44    21    22 1   
    45    21    26 1   
    46    22    23 2   
    47    22    24 1   
    48    24    25 1   
    49    25    55 1   
    50    25    56 1   
    51    25    57 1   
    52    26    27 ar  
    53    26    32 ar  
    54    27    28 1   
    55    27    29 ar  
    56    29    30 ar  
    57    29    58 1   
    58    30    31 ar  
    59    30    59 1   
    60    31    32 ar  
    61    31    60 1   
    62    32    33 1   
    63    34    35 ar  
    64    34    61 1   
    65    35    62 1   
@<TRIPOS>SUBSTRUCTURE
     1 96M         1 TEMP              0 ****  ****    0 ROOT
