@<TRIPOS>MOLECULE
96N
   47    49     1     0     0
SMALL
No Charge or Current Charge


@<TRIPOS>ATOM
      1 C2          -1.6890     0.4290     0.3910 cc         1 96N      -0.269600
      2 C3           1.8470     1.8250     0.3450 c3         1 96N       0.142300
      3 C1          -0.6270     1.4590     0.1680 c          1 96N       0.642700
      4 C4          -2.7270    -1.5590     0.8940 cc         1 96N      -0.062300
      5 C5          -3.7000    -0.6700     0.4760 cd         1 96N      -0.267600
      6 C13          3.7600     1.2010     1.8620 ca         1 96N      -0.099000
      7 C14          4.9150     0.4710     2.1820 ca         1 96N      -0.113000
      8 C15          5.4240    -0.4700     1.2770 ca         1 96N      -0.089000
      9 C16          4.7760    -0.6880     0.0470 ca         1 96N      -0.042000
     10 C17          3.6080     0.0430    -0.2850 ca         1 96N      -0.020000
     11 C6          -3.0510     0.5840     0.1720 cd         1 96N      -0.013300
     12 C7          -3.7120     1.8650    -0.3100 c3         1 96N      -0.017100
     13 C8          -3.7190     1.9910    -1.8480 c3         1 96N      -0.083100
     14 C9          -5.1550    -1.0840     0.3950 c          1 96N       0.614700
     15 C10         -6.2530    -0.1320    -0.0770 c3         1 96N      -0.191100
     16 C18          5.2980    -1.6410    -0.8490 ca         1 96N      -0.101000
     17 C19          4.6650    -1.8750    -2.0800 ca         1 96N      -0.105000
     18 C20          3.5080    -1.1590    -2.4180 ca         1 96N      -0.105000
     19 C21          2.9810    -0.2060    -1.5290 ca         1 96N      -0.101000
     20 N3          -1.5210    -0.8820     0.8420 na         1 96N      -0.094000
     21 C12         -2.8080    -3.0000     1.3380 c3         1 96N      -0.035800
     22 N13          0.6350     1.0200     0.4890 ns         1 96N      -0.512900
     23 O15         -0.8040     2.5900    -0.2590 o          1 96N      -0.594100
     24 O16         -5.5140    -2.2140     0.7060 o          1 96N      -0.560100
     25 C11          3.0980     1.0000     0.6340 ca         1 96N      -0.100300
     26 H1           1.8950     2.2400    -0.6710 h1         1 96N       0.064200
     27 H2           1.7870     2.6730     1.0410 h1         1 96N       0.064200
     28 H4           5.4170     0.6370     3.1330 ha         1 96N       0.116000
     29 H5           6.3200    -1.0320     1.5330 ha         1 96N       0.115000
     30 H6          -4.7270     1.9700     0.0720 hc         1 96N       0.053200
     31 H7          -3.2120     2.7410     0.1140 hc         1 96N       0.053200
     32 H8          -4.2410     2.9060    -2.1550 hc         1 96N       0.037367
     33 H9          -2.6960     2.0350    -2.2380 hc         1 96N       0.037367
     34 H10         -4.2200     1.1350    -2.3130 hc         1 96N       0.037367
     35 H11         -5.9500     0.3680    -1.0000 hc         1 96N       0.059367
     36 H12         -7.2160    -0.6410    -0.2010 hc         1 96N       0.059367
     37 H13         -6.3540     0.6760     0.6550 hc         1 96N       0.059367
     38 H14          6.1950    -2.2010    -0.5930 ha         1 96N       0.113000
     39 H15          5.0710    -2.6120    -2.7690 ha         1 96N       0.115000
     40 H16          3.0160    -1.3410    -3.3710 ha         1 96N       0.117000
     41 H17          2.0810     0.3270    -1.8240 ha         1 96N       0.128000
     42 H18         -0.6360    -1.3080     1.0940 hn         1 96N       0.350000
     43 H19         -3.2120    -3.6360     0.5410 hc         1 96N       0.059033
     44 H20         -1.8200    -3.3950     1.6030 hc         1 96N       0.059033
     45 H21         -3.4510    -3.1050     2.2200 hc         1 96N       0.059033
     46 H22          0.7310     0.0820     0.8450 hn         1 96N       0.308500
     47 H3           3.3780     1.9270     2.5760 ha         1 96N       0.111000
@<TRIPOS>BOND
     1     1     3 1   
     2     1    11 2   
     3     1    20 1   
     4     2    22 1   
     5     2    25 1   
     6     2    26 1   
     7     2    27 1   
     8     3    22 1   
     9     3    23 2   
    10     4     5 2   
    11     4    20 1   
    12     4    21 1   
    13     5    11 1   
    14     5    14 1   
    15     6     7 ar  
    16     6    25 ar  
    17     6    47 1   
    18     7     8 ar  
    19     7    28 1   
    20     8     9 ar  
    21     8    29 1   
    22     9    10 ar  
    23     9    16 ar  
    24    10    19 ar  
    25    10    25 ar  
    26    11    12 1   
    27    12    13 1   
    28    12    30 1   
    29    12    31 1   
    30    13    32 1   
    31    13    33 1   
    32    13    34 1   
    33    14    15 1   
    34    14    24 2   
    35    15    35 1   
    36    15    36 1   
    37    15    37 1   
    38    16    17 ar  
    39    16    38 1   
    40    17    18 ar  
    41    17    39 1   
    42    18    19 ar  
    43    18    40 1   
    44    19    41 1   
    45    20    42 1   
    46    21    43 1   
    47    21    44 1   
    48    21    45 1   
    49    22    46 1   
@<TRIPOS>SUBSTRUCTURE
     1 96N         1 TEMP              0 ****  ****    0 ROOT
