@<TRIPOS>MOLECULE
96N
   47    49     1     0     0
SMALL
bcc


@<TRIPOS>ATOM
      1 C2          -1.5830     0.3550     0.2080 cc         1 96N      -0.218900
      2 C3           1.8130     1.8870     0.7490 c3         1 96N       0.142300
      3 C1          -0.4560     1.2720    -0.0150 c          1 96N       0.709700
      4 C4          -2.5850    -1.5310     0.8790 cc         1 96N      -0.011600
      5 C5          -3.5780    -0.6670     0.4020 cd         1 96N      -0.267600
      6 C13          3.7460     1.0300     2.0540 ca         1 96N      -0.117000
      7 C14          4.8740     0.2050     2.2400 ca         1 96N      -0.131000
      8 C15          5.2750    -0.6390     1.2440 ca         1 96N      -0.107000
      9 C16          4.5680    -0.6890     0.0180 ca         1 96N      -0.042000
     10 C17          3.4310     0.1430    -0.1710 ca         1 96N      -0.020000
     11 C6          -2.9270     0.5340    -0.0320 cd         1 96N      -0.013300
     12 C7          -3.5210     1.7590    -0.6590 c3         1 96N      -0.017100
     13 C8          -3.7070     1.6070    -2.1680 c3         1 96N      -0.083100
     14 C9          -4.9930    -1.0400     0.4190 c          1 96N       0.614700
     15 C10         -6.0450    -0.0180     0.0800 c3         1 96N      -0.191100
     16 C18          4.9810    -1.5500    -1.0250 ca         1 96N      -0.119000
     17 C19          4.3020    -1.5890    -2.2120 ca         1 96N      -0.123000
     18 C20          3.1800    -0.7600    -2.4060 ca         1 96N      -0.123000
     19 C21          2.7540     0.0810    -1.4130 ca         1 96N      -0.119000
     20 N3          -1.4160    -0.8900     0.7690 na         1 96N      -0.145100
     21 C12         -2.6410    -2.9110     1.4290 c3         1 96N      -0.035800
     22 N13          0.5950     1.1040     0.8170 ns         1 96N      -0.579900
     23 O15         -0.4730     2.1170    -0.9030 o          1 96N      -0.594100
     24 O16         -5.3310    -2.1720     0.7270 o          1 96N      -0.560100
     25 C11          3.0280     1.0100     0.8860 ca         1 96N      -0.100300
     26 H1           1.8190     2.4330    -0.1940 h1         1 96N       0.064200
     27 H2           1.8160     2.6370     1.5430 h1         1 96N       0.064200
     28 H4           5.4160     0.2440     3.1760 ha         1 96N       0.134000
     29 H5           6.1400    -1.2780     1.3750 ha         1 96N       0.133000
     30 H6          -4.4710     2.0080    -0.1890 hc         1 96N       0.053200
     31 H7          -2.8650     2.6080    -0.4740 hc         1 96N       0.053200
     32 H8          -4.1160     2.5200    -2.6010 hc         1 96N       0.037367
     33 H9          -2.7510     1.4030    -2.6500 hc         1 96N       0.037367
     34 H10         -4.3840     0.7890    -2.4160 hc         1 96N       0.037367
     35 H11         -5.9400     0.3400    -0.9440 hc         1 96N       0.059367
     36 H12         -7.0350    -0.4560     0.1900 hc         1 96N       0.059367
     37 H13         -5.9730     0.8520     0.7350 hc         1 96N       0.059367
     38 H14          5.8490    -2.1790    -0.8700 ha         1 96N       0.131000
     39 H15          4.6270    -2.2500    -3.0040 ha         1 96N       0.133000
     40 H16          2.6510    -0.7870    -3.3500 ha         1 96N       0.135000
     41 H17          1.8950     0.7120    -1.5960 ha         1 96N       0.146000
     42 H18         -0.5280    -1.3190     0.9800 hn         1 96N       0.299700
     43 H19         -3.0180    -3.6180     0.6910 hc         1 96N       0.059033
     44 H20         -1.6480    -3.2390     1.7360 hc         1 96N       0.059033
     45 H21         -3.3000    -2.9670     2.2930 hc         1 96N       0.059033
     46 H22          0.4760     0.5510     1.6510 hn         1 96N       0.308500
     47 H3           3.4400     1.6930     2.8550 ha         1 96N       0.129000
@<TRIPOS>BOND
     1     1     3 1   
     2     1    11 2   
     3     1    20 1   
     4     2    22 1   
     5     2    25 1   
     6     2    26 1   
     7     2    27 1   
     8     3    22 1   
     9     3    23 2   
    10     4     5 2   
    11     4    20 1   
    12     4    21 1   
    13     5    11 1   
    14     5    14 1   
    15     6     7 ar  
    16     6    25 ar  
    17     6    47 1   
    18     7     8 ar  
    19     7    28 1   
    20     8     9 ar  
    21     8    29 1   
    22     9    10 ar  
    23     9    16 ar  
    24    10    19 ar  
    25    10    25 ar  
    26    11    12 1   
    27    12    13 1   
    28    12    30 1   
    29    12    31 1   
    30    13    32 1   
    31    13    33 1   
    32    13    34 1   
    33    14    15 1   
    34    14    24 2   
    35    15    35 1   
    36    15    36 1   
    37    15    37 1   
    38    16    17 ar  
    39    16    38 1   
    40    17    18 ar  
    41    17    39 1   
    42    18    19 ar  
    43    18    40 1   
    44    19    41 1   
    45    20    42 1   
    46    21    43 1   
    47    21    44 1   
    48    21    45 1   
    49    22    46 1   
@<TRIPOS>SUBSTRUCTURE
     1 96N         1 TEMP              0 ****  ****    0 ROOT
