@<TRIPOS>MOLECULE
96O
   36    37     1     0     0
SMALL
No Charge or Current Charge


@<TRIPOS>ATOM
      1 C13          2.6290    -0.1950     0.9160 c6         1 96O       0.147300
      2 C15          1.6600     0.9480     0.4790 c6         1 96O       0.170300
      3 N02         -4.2500    -0.4970     0.6420 na         1 96O       0.123800
      4 N03         -4.8510    -0.1330    -0.5250 nc         1 96O      -0.203800
      5 N04         -3.8960     0.2370    -1.3370 nd         1 96O      -0.353000
      6 C05         -2.6790     0.1100    -0.6950 cd         1 96O       0.196300
      7 C06         -1.3660     0.4630    -1.3570 c3         1 96O       0.148300
      8 O07         -0.3580    -0.5000    -0.9800 os         1 96O      -0.497000
      9 C08          0.9630    -0.2820    -1.5130 c6         1 96O       0.356300
     10 C09          1.9140    -1.4890    -1.1800 c6         1 96O       0.123300
     11 O10          3.2120    -1.3750    -1.8210 oh         1 96O      -0.690000
     12 C11          2.1160    -1.5610     0.3630 c6         1 96O       0.142300
     13 O12          3.0490    -2.6090     0.6850 oh         1 96O      -0.651000
     14 O14          2.7680    -0.2710     2.3500 oh         1 96O      -0.722000
     15 C16          2.1720     2.3620     0.9140 c3         1 96O       0.170600
     16 O17          1.3130     3.4400     0.4870 oh         1 96O      -0.713000
     17 O18          1.4980     0.9460    -0.9680 os         1 96O      -0.452000
     18 C19         -2.8870    -0.3560     0.5740 cc         1 96O      -0.194000
     19 H1           3.6100     0.0110     0.4610 h1         1 96O       0.069700
     20 H2           0.6790     0.7890     0.9500 h1         1 96O       0.068700
     21 H3          -5.7470    -0.1870     2.0890 h1         1 96O       0.063033
     22 H4          -5.6010    -1.8690     1.4930 h1         1 96O       0.063033
     23 H5          -4.3800    -1.2110     2.6220 h1         1 96O       0.063033
     24 H6          -1.5030     0.4730    -2.4460 h1         1 96O       0.059200
     25 H7          -1.0800     1.4740    -1.0410 h1         1 96O       0.059200
     26 H8           0.8910    -0.1880    -2.6070 h2         1 96O       0.067700
     27 H9           1.4170    -2.4140    -1.5090 h1         1 96O       0.043700
     28 H10          3.0630    -1.3620    -2.7950 ho         1 96O       0.503000
     29 H11          1.1410    -1.7770     0.8280 h1         1 96O       0.059700
     30 H12          3.6620    -2.6320    -0.0870 ho         1 96O       0.446000
     31 H13          3.1180    -1.1780     2.5250 ho         1 96O       0.522000
     32 H14          2.2640     2.3710     2.0090 h1         1 96O       0.036200
     33 H15          3.1810     2.4990     0.5030 h1         1 96O       0.036200
     34 H16          1.7570     4.2810     0.7470 ho         1 96O       0.503000
     35 H17         -2.2070    -0.5850     1.3820 h4         1 96O       0.169000
     36 C01         -5.0440    -0.9700     1.7820 c3         1 96O       0.064900
@<TRIPOS>BOND
     1     1     2 1   
     2     1    12 1   
     3     1    14 1   
     4     1    19 1   
     5     2    15 1   
     6     2    17 1   
     7     2    20 1   
     8     3     4 1   
     9     3    18 1   
    10     3    36 1   
    11     4     5 2   
    12     5     6 1   
    13     6     7 1   
    14     6    18 2   
    15     7     8 1   
    16     7    24 1   
    17     7    25 1   
    18     8     9 1   
    19     9    10 1   
    20     9    17 1   
    21     9    26 1   
    22    10    11 1   
    23    10    12 1   
    24    10    27 1   
    25    11    28 1   
    26    12    13 1   
    27    12    29 1   
    28    13    30 1   
    29    14    31 1   
    30    15    16 1   
    31    15    32 1   
    32    15    33 1   
    33    16    34 1   
    34    18    35 1   
    35    21    36 1   
    36    22    36 1   
    37    23    36 1   
@<TRIPOS>SUBSTRUCTURE
     1 96O         1 TEMP              0 ****  ****    0 ROOT
