@<TRIPOS>MOLECULE
96O
   36    37     1     0     0
SMALL
abcg2


@<TRIPOS>ATOM
      1 C13          2.8390     0.0300     0.8070 c6         1 96O       0.147300
      2 C15          1.9320     1.1790     0.3650 c6         1 96O       0.170300
      3 N02         -4.3340    -0.7780     0.4800 na         1 96O       0.123800
      4 N03         -4.7160     0.4670     0.2760 nc         1 96O      -0.203800
      5 N04         -3.7090     1.1190    -0.2020 nd         1 96O      -0.353000
      6 C05         -2.6550     0.2860    -0.3100 cd         1 96O       0.196300
      7 C06         -1.3380     0.7190    -0.8510 c3         1 96O       0.148300
      8 O07         -0.3960    -0.2720    -0.5100 os         1 96O      -0.497000
      9 C08          0.8040    -0.2030    -1.2150 c6         1 96O       0.356300
     10 C09          1.6330    -1.4340    -0.8350 c6         1 96O       0.123300
     11 O10          2.7610    -1.5320    -1.6660 oh         1 96O      -0.690000
     12 C11          2.1070    -1.2930     0.6090 c6         1 96O       0.142300
     13 O12          2.9840    -2.3260     0.9930 oh         1 96O      -0.651000
     14 O14          3.1610     0.2350     2.1620 oh         1 96O      -0.722000
     15 C16          2.6380     2.5170     0.4110 c3         1 96O       0.170600
     16 O17          1.7150     3.5250     0.0730 oh         1 96O      -0.713000
     17 O18          1.5040     0.9790    -0.9730 os         1 96O      -0.452000
     18 C19         -3.0470    -0.9520     0.1320 cc         1 96O      -0.194000
     19 H1           3.7450     0.0360     0.1820 h1         1 96O       0.069700
     20 H2           1.0680     1.2170     1.0450 h1         1 96O       0.068700
     21 H3          -5.1630    -1.7110     2.1600 h1         1 96O       0.063033
     22 H4          -6.2520    -1.5060     0.7740 h1         1 96O       0.063033
     23 H5          -4.9790    -2.7350     0.7250 h1         1 96O       0.063033
     24 H6          -1.3970     0.8370    -1.9420 h1         1 96O       0.059200
     25 H7          -1.0690     1.6980    -0.4400 h1         1 96O       0.059200
     26 H8           0.6090    -0.1990    -2.2980 h2         1 96O       0.067700
     27 H9           0.9940    -2.3240    -0.9220 h1         1 96O       0.043700
     28 H10          2.4740    -1.8040    -2.5430 ho         1 96O       0.503000
     29 H11          1.2170    -1.2810     1.2520 h1         1 96O       0.059700
     30 H12          2.4680    -3.1170     1.1720 ho         1 96O       0.446000
     31 H13          3.7040    -0.5060     2.4510 ho         1 96O       0.522000
     32 H14          3.0450     2.6600     1.4170 h1         1 96O       0.036200
     33 H15          3.4910     2.4960    -0.2830 h1         1 96O       0.036200
     34 H16          2.1610     4.3720     0.1510 ho         1 96O       0.503000
     35 H17         -2.5400    -1.8960     0.2220 h4         1 96O       0.169000
     36 C01         -5.2360    -1.7400     1.0750 c3         1 96O       0.064900
@<TRIPOS>BOND
     1     1     2 1   
     2     1    12 1   
     3     1    14 1   
     4     1    19 1   
     5     2    15 1   
     6     2    17 1   
     7     2    20 1   
     8     3     4 1   
     9     3    18 1   
    10     3    36 1   
    11     4     5 2   
    12     5     6 1   
    13     6     7 1   
    14     6    18 2   
    15     7     8 1   
    16     7    24 1   
    17     7    25 1   
    18     8     9 1   
    19     9    10 1   
    20     9    17 1   
    21     9    26 1   
    22    10    11 1   
    23    10    12 1   
    24    10    27 1   
    25    11    28 1   
    26    12    13 1   
    27    12    29 1   
    28    13    30 1   
    29    14    31 1   
    30    15    16 1   
    31    15    32 1   
    32    15    33 1   
    33    16    34 1   
    34    18    35 1   
    35    21    36 1   
    36    22    36 1   
    37    23    36 1   
@<TRIPOS>SUBSTRUCTURE
     1 96O         1 TEMP              0 ****  ****    0 ROOT
