@<TRIPOS>MOLECULE
96P
   61    63     1     0     0
SMALL
No Charge or Current Charge


@<TRIPOS>ATOM
      1 F3          -7.6210    -1.7220     1.5230 f          1 96P      -0.112333
      2 C24         -6.3530    -2.0440     1.8600 c3         1 96P       0.357300
      3 F1          -6.0010    -1.2400     2.8900 f          1 96P      -0.112333
      4 F2          -6.3820    -3.3050     2.3490 f          1 96P      -0.112333
      5 C23         -5.4060    -1.9010     0.6630 ca         1 96P      -0.188300
      6 C22         -5.1370    -3.0020    -0.1800 ca         1 96P      -0.059000
      7 C21         -4.2810    -2.8610    -1.2850 ca         1 96P      -0.106000
      8 C20         -3.6820    -1.6210    -1.5590 ca         1 96P      -0.082000
      9 C25         -4.8030    -0.6550     0.3740 ca         1 96P      -0.060000
     10 C19         -3.9300    -0.5210    -0.7240 ca         1 96P       0.110100
     11 O12         -3.3120     0.6740    -1.0130 os         1 96P      -0.369200
     12 C1          -2.6620     1.4390    -0.0900 c          1 96P       0.645100
     13 O1          -2.5760     1.1990     1.1030 o          1 96P      -0.513000
     14 N           -1.9330     2.3950    -0.7460 ns         1 96P      -0.489900
     15 C2          -0.8260     3.1470    -0.1300 c3         1 96P       0.104000
     16 C3           0.5670     2.4610    -0.2730 c3         1 96P       0.137300
     17 O7           0.4320     1.0420    -0.0020 os         1 96P      -0.441100
     18 C12          0.1830     0.1800    -1.0450 c          1 96P       0.619700
     19 C13         -0.2050    -1.2180    -0.6050 ca         1 96P      -0.115600
     20 C18         -0.2700    -2.2630    -1.5560 ca         1 96P      -0.141500
     21 C17         -0.6780    -3.5570    -1.1800 ca         1 96P       0.085600
     22 O11         -0.7310    -4.5480    -2.1270 oh         1 96P      -0.533100
     23 C16         -1.0340    -3.8160     0.1640 ca         1 96P       0.107100
     24 O10         -1.4430    -5.0610     0.5690 oh         1 96P      -0.510100
     25 C15         -0.9700    -2.7810     1.1180 ca         1 96P       0.085600
     26 O9          -1.3190    -3.0350     2.4190 oh         1 96P      -0.533100
     27 C14         -0.5560    -1.4930     0.7370 ca         1 96P      -0.141500
     28 O8           0.2470     0.5050    -2.2240 o          1 96P      -0.482000
     29 C4           1.6020     3.0380     0.7210 c3         1 96P       0.158600
     30 O2           2.8980     2.5000     0.3890 os         1 96P      -0.435100
     31 C5           3.9700     2.8660     1.1620 c          1 96P       0.617700
     32 O3           3.8830     3.6330     2.1140 o          1 96P      -0.491000
     33 C6           5.2770     2.2340     0.7310 ca         1 96P      -0.108600
     34 C11          5.3360     1.3360    -0.3640 ca         1 96P      -0.118000
     35 C10          6.5560     0.7600    -0.7490 ca         1 96P       0.101600
     36 O6           6.6050    -0.1030    -1.8040 oh         1 96P      -0.541600
     37 C9           7.7390     1.0670    -0.0500 ca         1 96P       0.048100
     38 O5           8.9330     0.5050    -0.4250 oh         1 96P      -0.552100
     39 C8           7.6950     1.9580     1.0410 ca         1 96P       0.101600
     40 O4           8.8500     2.2530     1.7180 oh         1 96P      -0.541600
     41 C7           6.4720     2.5360     1.4270 ca         1 96P      -0.118000
     42 H1          -5.5950    -3.9710     0.0120 ha         1 96P       0.135000
     43 H2          -4.0790    -3.7150    -1.9290 ha         1 96P       0.132000
     44 H3          -3.0170    -1.5130    -2.4110 ha         1 96P       0.136000
     45 H4          -5.0130     0.2090     1.0000 ha         1 96P       0.142000
     46 H5          -2.0600     2.4390    -1.7490 hn         1 96P       0.334500
     47 H6          -0.7830     4.1450    -0.5850 h1         1 96P       0.076200
     48 H7          -1.0490     3.2870     0.9360 h1         1 96P       0.076200
     49 H8           0.9490     2.6440    -1.2870 h1         1 96P       0.084700
     50 H9          -0.0080    -2.0620    -2.5920 ha         1 96P       0.146000
     51 H10         -0.4240    -4.1880    -2.9870 ho         1 96P       0.477000
     52 H11         -1.6340    -4.9850     1.5300 ho         1 96P       0.481000
     53 H12         -1.2370    -2.2050     2.9390 ho         1 96P       0.477000
     54 H13         -0.5240    -0.7010     1.4820 ha         1 96P       0.146000
     55 H14          1.6090     4.1330     0.6430 h1         1 96P       0.062700
     56 H15          1.3130     2.7680     1.7460 h1         1 96P       0.062700
     57 H16          4.4380     1.0800    -0.9220 ha         1 96P       0.148500
     58 H17          7.5460    -0.3780    -1.8900 ho         1 96P       0.483000
     59 H18          9.6150     0.8570     0.1940 ho         1 96P       0.495000
     60 H19          8.6440     2.8840     2.4430 ho         1 96P       0.483000
     61 H20          6.4450     3.2230     2.2710 ha         1 96P       0.148500
@<TRIPOS>BOND
     1     1     2 1   
     2     2     3 1   
     3     2     4 1   
     4     2     5 1   
     5     5     6 ar  
     6     5     9 ar  
     7     6     7 ar  
     8     6    42 1   
     9     7     8 ar  
    10     7    43 1   
    11     8    10 ar  
    12     8    44 1   
    13     9    10 ar  
    14     9    45 1   
    15    10    11 1   
    16    11    12 1   
    17    12    13 2   
    18    12    14 1   
    19    14    15 1   
    20    14    46 1   
    21    15    16 1   
    22    15    47 1   
    23    15    48 1   
    24    16    17 1   
    25    16    29 1   
    26    16    49 1   
    27    17    18 1   
    28    18    19 1   
    29    18    28 2   
    30    19    20 ar  
    31    19    27 ar  
    32    20    21 ar  
    33    20    50 1   
    34    21    22 1   
    35    21    23 ar  
    36    22    51 1   
    37    23    24 1   
    38    23    25 ar  
    39    24    52 1   
    40    25    26 1   
    41    25    27 ar  
    42    26    53 1   
    43    27    54 1   
    44    29    30 1   
    45    29    55 1   
    46    29    56 1   
    47    30    31 1   
    48    31    32 2   
    49    31    33 1   
    50    33    34 ar  
    51    33    41 ar  
    52    34    35 ar  
    53    34    57 1   
    54    35    36 1   
    55    35    37 ar  
    56    36    58 1   
    57    37    38 1   
    58    37    39 ar  
    59    38    59 1   
    60    39    40 1   
    61    39    41 ar  
    62    40    60 1   
    63    41    61 1   
@<TRIPOS>SUBSTRUCTURE
     1 96P         1 TEMP              0 ****  ****    0 ROOT
