@<TRIPOS>MOLECULE
96P
   61    63     1     0     0
SMALL
abcg2


@<TRIPOS>ATOM
      1 F3          -8.1130    -1.2350     0.2740 f          1 96P      -0.112333
      2 C24         -7.1730    -1.5970     1.1610 c3         1 96P       0.357300
      3 F1          -7.2090    -0.6890     2.1450 f          1 96P      -0.112333
      4 F2          -7.5620    -2.7620     1.6850 f          1 96P      -0.112333
      5 C23         -5.8210    -1.6750     0.5230 ca         1 96P      -0.188300
      6 C22         -5.2250    -2.8990     0.2510 ca         1 96P      -0.059000
      7 C21         -3.9900    -2.9320    -0.3820 ca         1 96P      -0.106000
      8 C20         -3.3510    -1.7570    -0.7420 ca         1 96P      -0.082000
      9 C25         -5.1880    -0.4870     0.1710 ca         1 96P      -0.060000
     10 C19         -3.9580    -0.5450    -0.4570 ca         1 96P       0.110100
     11 O12         -3.3330     0.6160    -0.8500 os         1 96P      -0.369200
     12 C1          -2.6110     1.2740     0.0940 c          1 96P       0.645100
     13 O1          -2.5960     0.9490     1.2560 o          1 96P      -0.513000
     14 N           -1.9670     2.3150    -0.4600 ns         1 96P      -0.489900
     15 C2          -0.9390     3.0350     0.2430 c3         1 96P       0.104000
     16 C3           0.4500     2.4880    -0.0890 c3         1 96P       0.137300
     17 O7           0.4200     1.0820     0.1480 os         1 96P      -0.441100
     18 C12          0.7050     0.2270    -0.8310 c          1 96P       0.619700
     19 C13          0.3460    -1.1630    -0.4790 ca         1 96P      -0.115600
     20 C18          0.5360    -2.1470    -1.4470 ca         1 96P      -0.141500
     21 C17          0.1570    -3.4550    -1.1940 ca         1 96P       0.085600
     22 O11          0.3020    -4.4600    -2.0790 oh         1 96P      -0.533100
     23 C16         -0.4230    -3.7880     0.0330 ca         1 96P       0.107100
     24 O10         -0.8040    -5.0620     0.2290 oh         1 96P      -0.510100
     25 C15         -0.5970    -2.7970     1.0000 ca         1 96P       0.085600
     26 O9          -1.1640    -3.2110     2.1540 oh         1 96P      -0.533100
     27 C14         -0.2160    -1.4900     0.7520 ca         1 96P      -0.141500
     28 O8           1.1760     0.5510    -1.8940 o          1 96P      -0.482000
     29 C4           1.5100     3.1110     0.7890 c3         1 96P       0.158600
     30 O2           2.7580     2.5720     0.3690 os         1 96P      -0.435100
     31 C5           3.8470     2.8990     1.0520 c          1 96P       0.617700
     32 O3           3.8380     3.6740     1.9780 o          1 96P      -0.491000
     33 C6           5.0560     2.2080     0.5520 ca         1 96P      -0.108600
     34 C11          5.0040     1.3150    -0.5150 ca         1 96P      -0.118000
     35 C10          6.1620     0.6820    -0.9390 ca         1 96P       0.101600
     36 O6           6.0890    -0.1810    -1.9710 oh         1 96P      -0.541600
     37 C9           7.3750     0.9410    -0.2990 ca         1 96P       0.048100
     38 O5           8.4660     0.2970    -0.7580 oh         1 96P      -0.552100
     39 C8           7.4180     1.8380     0.7690 ca         1 96P       0.101600
     40 O4           8.6330     2.0240     1.3260 oh         1 96P      -0.541600
     41 C7           6.2640     2.4710     1.1950 ca         1 96P      -0.118000
     42 H1          -5.7060    -3.8280     0.5190 ha         1 96P       0.135000
     43 H2          -3.5250    -3.8850    -0.5930 ha         1 96P       0.132000
     44 H3          -2.3930    -1.7790    -1.2440 ha         1 96P       0.136000
     45 H4          -5.6400     0.4760     0.3730 ha         1 96P       0.142000
     46 H5          -2.0500     2.4580    -1.4550 hn         1 96P       0.334500
     47 H6          -0.9800     4.0880    -0.0380 h1         1 96P       0.076200
     48 H7          -1.1310     2.9770     1.3140 h1         1 96P       0.076200
     49 H8           0.6780     2.6880    -1.1390 h1         1 96P       0.084700
     50 H9           0.9700    -1.8890    -2.4050 ha         1 96P       0.146000
     51 H10          0.7160    -4.1350    -2.8860 ho         1 96P       0.477000
     52 H11         -1.2020    -5.1600     1.1030 ho         1 96P       0.481000
     53 H12         -1.3340    -2.4680     2.7430 ho         1 96P       0.477000
     54 H13         -0.3750    -0.7370     1.5120 ha         1 96P       0.146000
     55 H14          1.4940     4.1970     0.6660 h1         1 96P       0.062700
     56 H15          1.3270     2.8830     1.8420 h1         1 96P       0.062700
     57 H16          4.0750     1.0970    -1.0260 ha         1 96P       0.148500
     58 H17          6.9460    -0.5920    -2.1340 ho         1 96P       0.483000
     59 H18          9.2430     0.5040    -0.2240 ho         1 96P       0.495000
     60 H19          8.5830     2.6340     2.0700 ho         1 96P       0.483000
     61 H20          6.3050     3.1640     2.0250 ha         1 96P       0.148500
@<TRIPOS>BOND
     1     1     2 1   
     2     2     3 1   
     3     2     4 1   
     4     2     5 1   
     5     5     6 ar  
     6     5     9 ar  
     7     6     7 ar  
     8     6    42 1   
     9     7     8 ar  
    10     7    43 1   
    11     8    10 ar  
    12     8    44 1   
    13     9    10 ar  
    14     9    45 1   
    15    10    11 1   
    16    11    12 1   
    17    12    13 2   
    18    12    14 1   
    19    14    15 1   
    20    14    46 1   
    21    15    16 1   
    22    15    47 1   
    23    15    48 1   
    24    16    17 1   
    25    16    29 1   
    26    16    49 1   
    27    17    18 1   
    28    18    19 1   
    29    18    28 2   
    30    19    20 ar  
    31    19    27 ar  
    32    20    21 ar  
    33    20    50 1   
    34    21    22 1   
    35    21    23 ar  
    36    22    51 1   
    37    23    24 1   
    38    23    25 ar  
    39    24    52 1   
    40    25    26 1   
    41    25    27 ar  
    42    26    53 1   
    43    27    54 1   
    44    29    30 1   
    45    29    55 1   
    46    29    56 1   
    47    30    31 1   
    48    31    32 2   
    49    31    33 1   
    50    33    34 ar  
    51    33    41 ar  
    52    34    35 ar  
    53    34    57 1   
    54    35    36 1   
    55    35    37 ar  
    56    36    58 1   
    57    37    38 1   
    58    37    39 ar  
    59    38    59 1   
    60    39    40 1   
    61    39    41 ar  
    62    40    60 1   
    63    41    61 1   
@<TRIPOS>SUBSTRUCTURE
     1 96P         1 TEMP              0 ****  ****    0 ROOT
