@<TRIPOS>MOLECULE
96Q
   74    79     1     0     0
SMALL
abcg2


@<TRIPOS>ATOM
      1 C36         -0.1170     3.2810    74.4040 c6         1 96Q      -0.140900
      2 O4           5.8810    -8.3210    81.9080 o          1 96Q      -0.603100
      3 C18          5.3590    -2.6910    79.5610 ca         1 96Q      -0.045000
      4 C14          7.4170    -5.4780    80.6080 cc         1 96Q       0.007900
      5 C17          7.3390    -3.9570    79.0120 ca         1 96Q       0.077100
      6 C16          6.2440    -3.7260    79.8560 ca         1 96Q      -0.104800
      7 C15          6.3270    -4.7310    80.8890 cd         1 96Q      -0.214200
      8 C12          8.0510    -6.6620    81.2620 c3         1 96Q       0.171200
      9 C10          3.5710    -9.3470    88.5050 ca         1 96Q       0.622900
     10 C9           4.7210    -8.5300    88.3920 ca         1 96Q      -0.241000
     11 C8           5.2290    -8.2710    87.1460 ca         1 96Q      -0.006000
     12 C6           3.4850    -9.6080    86.2290 ca         1 96Q       0.417900
     13 C7           4.6100    -8.8130    86.0010 ca         1 96Q      -0.201800
     14 C3           5.0700    -8.6020    84.6440 ce         1 96Q      -0.041200
     15 C2           6.1060    -7.8480    84.2450 cf         1 96Q      -0.323200
     16 C1           6.4690    -7.7320    82.8210 c          1 96Q       0.604300
     17 N5           7.5300    -6.9170    82.5830 ns         1 96Q      -0.511900
     18 N11          2.9710    -9.8760    87.4280 nb         1 96Q      -0.749000
     19 O13          8.0530    -5.0350    79.4680 os         1 96Q      -0.186200
     20 C19          5.5880    -1.9120    78.4240 cp         1 96Q      -0.060000
     21 C20          6.7050    -2.1780    77.6100 ca         1 96Q      -0.074000
     22 C21          7.6180    -3.2020    77.8760 cp         1 96Q      -0.023000
     23 C22          8.7950    -3.4420    77.0150 cp         1 96Q      -0.044000
     24 C23          4.6660    -0.8060    78.0790 cp         1 96Q      -0.010000
     25 C24          4.0580    -0.0380    79.0800 ca         1 96Q      -0.108500
     26 C25          3.1870     0.9920    78.7620 ca         1 96Q      -0.076000
     27 C26          2.8760     1.2700    77.4320 ca         1 96Q      -0.141600
     28 C27          3.4810     0.5170    76.4260 ca         1 96Q      -0.076000
     29 C28          4.3680    -0.5000    76.7470 ca         1 96Q      -0.108500
     30 C29          1.9850     2.4340    77.1190 c          1 96Q       0.618700
     31 O30          2.2900     3.5570    77.5340 o          1 96Q      -0.595100
     32 N31          0.8770     2.2130    76.3720 n          1 96Q      -0.418800
     33 C33          0.3260     0.9040    76.0320 c6         1 96Q       0.100500
     34 C34          0.1700     0.7660    74.5170 c6         1 96Q      -0.140900
     35 C35         -0.6200     1.9270    73.9590 c6         1 96Q       0.172000
     36 C37          0.0500     3.3300    75.9250 c6         1 96Q       0.100500
     37 C38          8.7010    -3.3040    75.6260 ca         1 96Q      -0.068500
     38 C39          9.8050    -3.5070    74.8060 ca         1 96Q      -0.149000
     39 C40         11.0070    -3.8520    75.3950 ca         1 96Q       0.169000
     40 C41         11.1460    -4.0000    76.7630 ca         1 96Q      -0.149000
     41 C42         10.0320    -3.7950    77.5670 ca         1 96Q      -0.068500
     42 F43         -1.9530     1.7910    74.3310 f          1 96Q      -0.124500
     43 F44         -0.6330     1.8650    72.5770 f          1 96Q      -0.124500
     44 F45         12.0920    -4.0560    74.6050 f          1 96Q      -0.183000
     45 H1           0.8460     3.4560    73.9220 hc         1 96Q       0.076950
     46 H2          -0.8170     4.0490    74.0720 hc         1 96Q       0.076950
     47 H3           4.4970    -2.5110    80.1890 ha         1 96Q       0.124000
     48 H4           5.6600    -4.8720    81.7230 ha         1 96Q       0.219000
     49 H5           7.8930    -7.5480    80.6440 h1         1 96Q       0.079200
     50 H6           9.1280    -6.4980    81.3300 h1         1 96Q       0.079200
     51 H7           5.1830    -8.1260    89.2830 ha         1 96Q       0.123000
     52 H8           6.1120    -7.6510    87.0510 ha         1 96Q       0.116000
     53 H9           2.9730   -10.0540    85.3810 h4         1 96Q       0.022100
     54 H10          4.5050    -9.1170    83.8720 ha         1 96Q       0.196000
     55 H11          6.7120    -7.2970    84.9550 ha         1 96Q       0.174000
     56 H12          7.9500    -6.4290    83.3580 hn         1 96Q       0.316500
     57 H13          6.8930    -1.5360    76.7600 ha         1 96Q       0.121000
     58 H14          4.2870    -0.2340    80.1200 ha         1 96Q       0.119000
     59 H15          2.7430     1.5870    79.5500 ha         1 96Q       0.123000
     60 H16          3.2610     0.7260    75.3870 ha         1 96Q       0.123000
     61 H17          4.8160    -1.0790    75.9490 ha         1 96Q       0.119000
     62 H18          2.3220   -10.3320    89.7730 hn         1 96Q       0.487500
     63 H19          3.5410    -9.4110    90.5530 hn         1 96Q       0.487500
     64 H20         -0.6520     0.8110    76.5130 h1         1 96Q       0.068200
     65 H21          0.9610     0.1170    76.4210 h1         1 96Q       0.068200
     66 H22         -0.3390    -0.1660    74.2670 hc         1 96Q       0.076950
     67 H23          1.1510     0.7680    74.0400 hc         1 96Q       0.076950
     68 H24          0.5260     4.2570    76.2250 h1         1 96Q       0.068200
     69 H25         -0.9250     3.2700    76.4150 h1         1 96Q       0.068200
     70 H26          7.7520    -3.0480    75.1750 ha         1 96Q       0.121500
     71 H27          9.7340    -3.4090    73.7310 ha         1 96Q       0.133000
     72 H28         12.1050    -4.2650    77.1870 ha         1 96Q       0.133000
     73 H29         10.1330    -3.8980    78.6380 ha         1 96Q       0.121500
     74 N32          3.0120    -9.6000    89.7180 nv         1 96Q      -1.068900
@<TRIPOS>BOND
     1     1    35 1   
     2     1    36 1   
     3     1    45 1   
     4     1    46 1   
     5     2    16 2   
     6     3     6 ar  
     7     3    20 ar  
     8     3    47 1   
     9     4     7 2   
    10     4     8 1   
    11     4    19 1   
    12     5     6 ar  
    13     5    19 1   
    14     5    22 ar  
    15     6     7 1   
    16     7    48 1   
    17     8    17 1   
    18     8    49 1   
    19     8    50 1   
    20     9    10 ar  
    21     9    18 ar  
    22     9    74 1   
    23    10    11 ar  
    24    10    51 1   
    25    11    13 ar  
    26    11    52 1   
    27    12    13 ar  
    28    12    18 ar  
    29    12    53 1   
    30    13    14 1   
    31    14    15 2   
    32    14    54 1   
    33    15    16 1   
    34    15    55 1   
    35    16    17 1   
    36    17    56 1   
    37    20    21 ar  
    38    20    24 1   
    39    21    22 ar  
    40    21    57 1   
    41    22    23 1   
    42    23    37 ar  
    43    23    41 ar  
    44    24    25 ar  
    45    24    29 ar  
    46    25    26 ar  
    47    25    58 1   
    48    26    27 ar  
    49    26    59 1   
    50    27    28 ar  
    51    27    30 1   
    52    28    29 ar  
    53    28    60 1   
    54    29    61 1   
    55    30    31 2   
    56    30    32 1   
    57    32    33 1   
    58    32    36 1   
    59    33    34 1   
    60    33    64 1   
    61    33    65 1   
    62    34    35 1   
    63    34    66 1   
    64    34    67 1   
    65    35    42 1   
    66    35    43 1   
    67    36    68 1   
    68    36    69 1   
    69    37    38 ar  
    70    37    70 1   
    71    38    39 ar  
    72    38    71 1   
    73    39    40 ar  
    74    39    44 1   
    75    40    41 ar  
    76    40    72 1   
    77    41    73 1   
    78    62    74 1   
    79    63    74 1   
@<TRIPOS>SUBSTRUCTURE
     1 96Q         1 TEMP              0 ****  ****    0 ROOT
