@<TRIPOS>MOLECULE
96Q
   74    79     1     0     0
SMALL
No Charge or Current Charge


@<TRIPOS>ATOM
      1 C36          0.4770     4.2190    74.1580 c6         1 96Q      -0.140900
      2 O4           4.7030    -8.6330    82.0860 o          1 96Q      -0.603100
      3 C18          4.3590    -3.6420    78.9690 ca         1 96Q      -0.045000
      4 C14          6.3730    -6.5630    79.7910 cc         1 96Q       0.007900
      5 C17          6.5980    -4.5770    78.8760 ca         1 96Q       0.077100
      6 C16          5.2770    -4.6650    79.2190 ca         1 96Q      -0.104800
      7 C15          5.1360    -5.9520    79.8150 cd         1 96Q      -0.214200
      8 C12          6.8120    -7.9160    80.2870 c3         1 96Q       0.171200
      9 C10          5.4360    -8.6960    89.1660 ca         1 96Q       0.622900
     10 C9           6.5860    -8.3330    88.4670 ca         1 96Q      -0.241000
     11 C8           6.5300    -8.2930    87.0660 ca         1 96Q      -0.006000
     12 C6           4.2180    -8.9820    87.2650 ca         1 96Q       0.417900
     13 C7           5.3110    -8.6270    86.4420 ca         1 96Q      -0.201800
     14 C3           5.1490    -8.6160    84.9570 ce         1 96Q      -0.041200
     15 C2           6.0740    -8.3070    84.0000 cf         1 96Q      -0.323200
     16 C1           5.7940    -8.3310    82.5450 c          1 96Q       0.604300
     17 N5           6.8580    -7.9880    81.7510 ns         1 96Q      -0.511900
     18 N11          4.2780    -9.0180    88.6160 nb         1 96Q      -0.749000
     19 O13          7.3120    -5.7180    79.1970 os         1 96Q      -0.186200
     20 C19          4.8230    -2.4620    78.3240 cp         1 96Q      -0.060000
     21 C20          6.2060    -2.3870    77.9700 ca         1 96Q      -0.074000
     22 C21          7.1330    -3.4350    78.2350 cp         1 96Q      -0.023000
     23 C22          8.5740    -3.3160    77.8510 cp         1 96Q      -0.044000
     24 C23          3.8870    -1.3320    78.0270 cp         1 96Q      -0.010000
     25 C24          2.8300    -1.0040    78.9100 ca         1 96Q      -0.108500
     26 C25          1.9510     0.0570    78.6340 ca         1 96Q      -0.076000
     27 C26          2.0890     0.8170    77.4540 ca         1 96Q      -0.141600
     28 C27          3.1540     0.5140    76.5760 ca         1 96Q      -0.076000
     29 C28          4.0320    -0.5460    76.8570 ca         1 96Q      -0.108500
     30 C29          1.1410     1.9690    77.1880 c          1 96Q       0.618700
     31 O30          0.6320     2.5870    78.1170 o          1 96Q      -0.595100
     32 N31          0.9470     2.3840    75.8500 n          1 96Q      -0.418800
     33 C33          0.6030     1.3460    74.8280 c6         1 96Q       0.100500
     34 C34          0.8260     1.8250    73.3760 c6         1 96Q      -0.140900
     35 C35          0.0980     3.1540    73.1160 c6         1 96Q       0.172000
     36 C37          0.2730     3.6920    75.5980 c6         1 96Q       0.100500
     37 C38          8.9470    -2.7310    76.6140 ca         1 96Q      -0.068500
     38 C39         10.2990    -2.6100    76.2480 ca         1 96Q      -0.149000
     39 C40         11.3010    -3.0690    77.1150 ca         1 96Q       0.169000
     40 C41         10.9600    -3.6450    78.3470 ca         1 96Q      -0.149000
     41 C42          9.6080    -3.7670    78.7130 ca         1 96Q      -0.068500
     42 F43         -1.2930     2.9460    73.1330 f          1 96Q      -0.124500
     43 F44          0.4170     3.6210    71.8300 f          1 96Q      -0.124500
     44 F45         12.6000    -2.9520    76.7640 f          1 96Q      -0.183000
     45 H1           1.5300     4.5020    74.0250 hc         1 96Q       0.076950
     46 H2          -0.1150     5.1310    74.0040 hc         1 96Q       0.076950
     47 H3           3.3150    -3.7610    79.2470 ha         1 96Q       0.124000
     48 H4           4.2260    -6.3850    80.2240 ha         1 96Q       0.219000
     49 H5           6.1280    -8.6830    79.9010 h1         1 96Q       0.079200
     50 H6           7.8120    -8.1380    79.8920 h1         1 96Q       0.079200
     51 H7           7.5020    -8.0840    88.9940 ha         1 96Q       0.123000
     52 H8           7.4110    -8.0120    86.4940 ha         1 96Q       0.116000
     53 H9           3.2570    -9.2480    86.8240 h4         1 96Q       0.022100
     54 H10          4.1470    -8.8950    84.6170 ha         1 96Q       0.196000
     55 H11          7.0810    -8.0240    84.2940 ha         1 96Q       0.174000
     56 H12          7.7220    -7.7460    82.2190 hn         1 96Q       0.316500
     57 H13          6.5760    -1.4810    77.5000 ha         1 96Q       0.121000
     58 H14          2.6970    -1.5680    79.8300 ha         1 96Q       0.119000
     59 H15          1.1530     0.2820    79.3390 ha         1 96Q       0.123000
     60 H16          3.3150     1.1060    75.6780 ha         1 96Q       0.123000
     61 H17          4.8300    -0.7650    76.1520 ha         1 96Q       0.119000
     62 H18          4.5700    -9.2820    90.8440 hn         1 96Q       0.487500
     63 H19          6.2450    -8.9170    90.9940 hn         1 96Q       0.487500
     64 H20         -0.4560     1.0780    74.9540 h1         1 96Q       0.068200
     65 H21          1.1730     0.4220    74.9900 h1         1 96Q       0.068200
     66 H22          0.4810     1.0580    72.6690 hc         1 96Q       0.076950
     67 H23          1.9030     1.9540    73.1980 hc         1 96Q       0.076950
     68 H24          0.6530     4.4440    76.3050 h1         1 96Q       0.068200
     69 H25         -0.8040     3.5800    75.7960 h1         1 96Q       0.068200
     70 H26          8.1800    -2.3800    75.9280 ha         1 96Q       0.121500
     71 H27         10.5710    -2.1640    75.2940 ha         1 96Q       0.133000
     72 H28         11.7420    -3.9930    79.0170 ha         1 96Q       0.133000
     73 H29          9.3590    -4.2020    79.6780 ha         1 96Q       0.121500
     74 N32          5.3750    -8.7750    90.4950 nv         1 96Q      -1.068900
@<TRIPOS>BOND
     1     1    35 1   
     2     1    36 1   
     3     1    45 1   
     4     1    46 1   
     5     2    16 2   
     6     3     6 ar  
     7     3    20 ar  
     8     3    47 1   
     9     4     7 2   
    10     4     8 1   
    11     4    19 1   
    12     5     6 ar  
    13     5    19 1   
    14     5    22 ar  
    15     6     7 1   
    16     7    48 1   
    17     8    17 1   
    18     8    49 1   
    19     8    50 1   
    20     9    10 ar  
    21     9    18 ar  
    22     9    74 1   
    23    10    11 ar  
    24    10    51 1   
    25    11    13 ar  
    26    11    52 1   
    27    12    13 ar  
    28    12    18 ar  
    29    12    53 1   
    30    13    14 1   
    31    14    15 2   
    32    14    54 1   
    33    15    16 1   
    34    15    55 1   
    35    16    17 1   
    36    17    56 1   
    37    20    21 ar  
    38    20    24 1   
    39    21    22 ar  
    40    21    57 1   
    41    22    23 1   
    42    23    37 ar  
    43    23    41 ar  
    44    24    25 ar  
    45    24    29 ar  
    46    25    26 ar  
    47    25    58 1   
    48    26    27 ar  
    49    26    59 1   
    50    27    28 ar  
    51    27    30 1   
    52    28    29 ar  
    53    28    60 1   
    54    29    61 1   
    55    30    31 2   
    56    30    32 1   
    57    32    33 1   
    58    32    36 1   
    59    33    34 1   
    60    33    64 1   
    61    33    65 1   
    62    34    35 1   
    63    34    66 1   
    64    34    67 1   
    65    35    42 1   
    66    35    43 1   
    67    36    68 1   
    68    36    69 1   
    69    37    38 ar  
    70    37    70 1   
    71    38    39 ar  
    72    38    71 1   
    73    39    40 ar  
    74    39    44 1   
    75    40    41 ar  
    76    40    72 1   
    77    41    73 1   
    78    62    74 1   
    79    63    74 1   
@<TRIPOS>SUBSTRUCTURE
     1 96Q         1 TEMP              0 ****  ****    0 ROOT
