@<TRIPOS>MOLECULE
96R
   27    29     1     0     0
SMALL
bcc


@<TRIPOS>ATOM
      1 C1          -0.0700     1.9210     0.1290 ca         1 96R      -0.139000
      2 C2          -1.1390     2.7800     0.1460 ca         1 96R      -0.096000
      3 C3          -2.4610     2.3080     0.0540 ca         1 96R      -0.163000
      4 C4          -2.7020     0.9600    -0.0390 ca         1 96R       0.087800
      5 C5          -1.6160     0.0430    -0.0510 ca         1 96R       0.381600
      6 C6          -0.2970     0.5330     0.0140 ca         1 96R      -0.152300
      7 C7           0.7170    -0.4690    -0.0210 ca         1 96R       0.079800
      8 C8           0.3890    -1.7870    -0.0660 ca         1 96R      -0.294300
      9 C9          -0.9880    -2.1620    -0.1020 ca         1 96R       0.699200
     10 N10         -1.9450    -1.2650    -0.1130 nb         1 96R      -0.787000
     11 O11         -3.9500     0.4740    -0.1120 oh         1 96R      -0.489100
     12 N12         -1.3170    -3.4730    -0.1080 nv         1 96R      -0.958500
     13 N14          2.0750    -0.0980     0.0060 na         1 96R      -0.143000
     14 C15          3.0310    -0.5640     0.8750 cc         1 96R      -0.251600
     15 C16          4.1960     0.0190     0.4790 cd         1 96R       0.299200
     16 N17          3.9820     0.8150    -0.6140 nd         1 96R      -0.669000
     17 C18          2.7080     0.7260    -0.8720 cc         1 96R       0.407400
     18 H1           0.9340     2.3110     0.2180 ha         1 96R       0.146000
     19 H2          -0.9710     3.8440     0.2370 ha         1 96R       0.138000
     20 H3          -3.2890     3.0050     0.0680 ha         1 96R       0.151000
     21 H4           1.1570    -2.5480    -0.0990 ha         1 96R       0.153000
     22 H5          -3.8740    -0.4940    -0.1560 ho         1 96R       0.456000
     23 H6          -0.6170    -4.1530    -0.3510 hn         1 96R       0.429800
     24 H7          -2.2640    -3.7200    -0.3390 hn         1 96R       0.429800
     25 H8           2.7920    -1.2300     1.6870 h4         1 96R       0.180000
     26 H9           5.1720    -0.0890     0.9250 h4         1 96R       0.041100
     27 H10          2.1850     1.2060    -1.6850 h5         1 96R       0.063100
@<TRIPOS>BOND
     1     1     2 ar  
     2     1     6 ar  
     3     1    18 1   
     4     2     3 ar  
     5     2    19 1   
     6     3     4 ar  
     7     3    20 1   
     8     4     5 ar  
     9     4    11 1   
    10     5     6 ar  
    11     5    10 ar  
    12     6     7 ar  
    13     7     8 ar  
    14     7    13 1   
    15     8     9 ar  
    16     8    21 1   
    17     9    10 ar  
    18     9    12 1   
    19    11    22 1   
    20    12    23 1   
    21    12    24 1   
    22    13    14 1   
    23    13    17 1   
    24    14    15 2   
    25    14    25 1   
    26    15    16 1   
    27    15    26 1   
    28    16    17 2   
    29    17    27 1   
@<TRIPOS>SUBSTRUCTURE
     1 96R         1 TEMP              0 ****  ****    0 ROOT
