@<TRIPOS>MOLECULE
96R
   27    29     1     0     0
SMALL
No Charge or Current Charge


@<TRIPOS>ATOM
      1 C1          -0.0930     1.8990     0.1310 ca         1 96R      -0.121000
      2 C2          -1.1750     2.7940     0.1390 ca         1 96R      -0.078000
      3 C3          -2.4890     2.3100     0.0630 ca         1 96R      -0.145000
      4 C4          -2.7190     0.9290    -0.0140 ca         1 96R       0.153100
      5 C5          -1.6450     0.0040    -0.0230 ca         1 96R       0.251000
      6 C6          -0.3130     0.5020     0.0410 ca         1 96R      -0.087000
      7 C7           0.7580    -0.4280     0.0270 ca         1 96R       0.079800
      8 C8           0.4420    -1.7940    -0.0280 ca         1 96R      -0.211000
      9 C9          -0.8970    -2.1640    -0.0800 ca         1 96R       0.633900
     10 N10         -1.9210    -1.3270    -0.0870 nb         1 96R      -0.787000
     11 O11         -4.0000     0.4550    -0.0770 oh         1 96R      -0.528100
     12 N12         -1.3220    -3.4240    -0.1540 nv         1 96R      -1.068900
     13 N14          2.0980    -0.0420     0.0550 na         1 96R      -0.092300
     14 C15          3.0250    -0.5150     0.9490 cc         1 96R      -0.219000
     15 C16          4.2130    -0.0000     0.4870 cd         1 96R       0.233900
     16 N17          4.0230     0.7260    -0.6820 nd         1 96R      -0.669000
     17 C18          2.7210     0.6670    -0.9430 cc         1 96R       0.407400
     18 H1           0.9110     2.3070     0.2080 ha         1 96R       0.128000
     19 H2          -0.9940     3.8650     0.2090 ha         1 96R       0.120000
     20 H3          -3.3280     3.0020     0.0700 ha         1 96R       0.133000
     21 H4           1.2200    -2.5500    -0.0400 ha         1 96R       0.135000
     22 H5          -3.8940    -0.5250    -0.1140 ho         1 96R       0.495000
     23 H6          -0.6750    -4.1060    -0.5320 hn         1 96R       0.485000
     24 H7          -2.2910    -3.5230    -0.4280 hn         1 96R       0.485000
     25 H8           2.7900    -1.1360     1.8030 h4         1 96R       0.162000
     26 H9           5.1980    -0.1250     0.9210 h4         1 96R       0.041100
     27 H10          2.1960     1.0930    -1.7900 h5         1 96R       0.063100
@<TRIPOS>BOND
     1     1     2 ar  
     2     1     6 ar  
     3     1    18 1   
     4     2     3 ar  
     5     2    19 1   
     6     3     4 ar  
     7     3    20 1   
     8     4     5 ar  
     9     4    11 1   
    10     5     6 ar  
    11     5    10 ar  
    12     6     7 ar  
    13     7     8 ar  
    14     7    13 1   
    15     8     9 ar  
    16     8    21 1   
    17     9    10 ar  
    18     9    12 1   
    19    11    22 1   
    20    12    23 1   
    21    12    24 1   
    22    13    14 1   
    23    13    17 1   
    24    14    15 2   
    25    14    25 1   
    26    15    16 1   
    27    15    26 1   
    28    16    17 2   
    29    17    27 1   
@<TRIPOS>SUBSTRUCTURE
     1 96R         1 TEMP              0 ****  ****    0 ROOT
