@<TRIPOS>MOLECULE
96S
   48    51     1     0     0
SMALL
No Charge or Current Charge


@<TRIPOS>ATOM
      1 Cl          -0.9640    -1.0570    -1.6770 cl         1 96S      -0.208000
      2 C19         -0.3210     2.6660     0.9360 c          1 96S       0.573000
      3 N           -1.5790     2.0660     0.8380 n          1 96S      -0.290000
      4 C1          -2.3930     1.7190     2.0200 c3         1 96S       0.114000
      5 C           -3.5640     2.6900     2.2520 c3         1 96S      -0.115100
      6 N1           0.1060     2.8050    -0.3820 n          1 96S      -0.298000
      7 C12          1.4590     3.2720    -0.7500 c3         1 96S       0.108700
      8 C13          2.4710     2.1500    -0.7450 cc         1 96S       0.390800
      9 N4           2.1440     0.8090    -0.9310 na         1 96S      -0.298600
     10 C18          3.3100     0.1140    -0.8630 ca         1 96S      -0.135200
     11 C17          3.5410    -1.2600    -0.9810 ca         1 96S      -0.063000
     12 C16          4.8850    -1.6570    -0.8600 ca         1 96S      -0.140000
     13 C15          5.8730    -0.6710    -0.6360 ca         1 96S       0.432000
     14 Cl1          7.5610    -1.1340    -0.4800 cl         1 96S      -0.169000
     15 N3           5.6070     0.6540    -0.5270 nb         1 96S      -0.591000
     16 C14          4.3200     1.0190    -0.6440 ca         1 96S       0.478000
     17 N2           3.7990     2.3060    -0.5700 nd         1 96S      -0.594700
     18 C11         -0.8520     2.3060    -1.2510 cc         1 96S      -0.174400
     19 C2          -1.9000     1.8300    -0.4980 cd         1 96S      -0.042600
     20 C4          -3.3580    -0.2760    -0.4890 ca         1 96S      -0.114300
     21 C10         -2.4290    -1.3170    -0.7260 ca         1 96S       0.173000
     22 C9          -2.6580    -2.6000    -0.2060 ca         1 96S      -0.141000
     23 C7          -3.8070    -2.8710     0.5480 ca         1 96S       0.157100
     24 O           -3.9750    -4.1520     1.0330 os         1 96S      -0.335100
     25 C8          -5.1190    -4.5320     1.8190 c3         1 96S       0.146900
     26 C6          -4.7420    -1.8410     0.7820 ca         1 96S      -0.197000
     27 C5          -4.5170    -0.5540     0.2630 ca         1 96S      -0.064000
     28 H1          -2.7760     0.6990     1.9090 h1         1 96S       0.066700
     29 H2          -1.7510     1.7200     2.9110 h1         1 96S       0.066700
     30 H3          -3.1920     3.7120     2.3920 hc         1 96S       0.042700
     31 H4          -4.2520     2.6850     1.4010 hc         1 96S       0.042700
     32 H5          -4.1240     2.4010     3.1490 hc         1 96S       0.042700
     33 H6           1.4290     3.7190    -1.7500 h1         1 96S       0.085200
     34 H7           1.7810     4.0480    -0.0440 h1         1 96S       0.085200
     35 H8           1.2110     0.4420    -1.0770 hn         1 96S       0.359000
     36 H9           2.7380    -1.9740    -1.1550 ha         1 96S       0.126000
     37 H10          5.1660    -2.7030    -0.9370 ha         1 96S       0.139000
     38 H12         -0.6630     2.3200    -2.3210 h4         1 96S       0.218000
     39 H13         -4.0100     1.7670    -0.8190 hc         1 96S       0.062200
     40 H14         -3.0830     1.0940    -2.1230 hc         1 96S       0.062200
     41 H15         -1.9390    -3.3920    -0.3920 ha         1 96S       0.145000
     42 H16         -5.1740    -3.9380     2.7400 h1         1 96S       0.044033
     43 H17         -6.0470    -4.3890     1.2510 h1         1 96S       0.044033
     44 H18         -5.0530    -5.5900     2.0990 h1         1 96S       0.044033
     45 H19         -5.6440    -2.0170     1.3610 ha         1 96S       0.123000
     46 H20         -5.2470     0.2300     0.4550 ha         1 96S       0.114000
     47 C3          -3.1370     1.1390    -1.0280 c3         1 96S       0.049100
     48 O1           0.2860     2.9810     1.9500 o          1 96S      -0.564000
@<TRIPOS>BOND
     1     1    21 1   
     2     2     3 1   
     3     2     6 1   
     4     2    48 2   
     5     3     4 1   
     6     3    19 1   
     7     4     5 1   
     8     4    28 1   
     9     4    29 1   
    10     5    30 1   
    11     5    31 1   
    12     5    32 1   
    13     6     7 1   
    14     6    18 1   
    15     7     8 1   
    16     7    33 1   
    17     7    34 1   
    18     8     9 1   
    19     8    17 2   
    20     9    10 1   
    21     9    35 1   
    22    10    11 ar  
    23    10    16 ar  
    24    11    12 ar  
    25    11    36 1   
    26    12    13 ar  
    27    12    37 1   
    28    13    14 1   
    29    13    15 ar  
    30    15    16 ar  
    31    16    17 1   
    32    18    19 2   
    33    18    38 1   
    34    19    47 1   
    35    20    21 ar  
    36    20    27 ar  
    37    20    47 1   
    38    21    22 ar  
    39    22    23 ar  
    40    22    41 1   
    41    23    24 1   
    42    23    26 ar  
    43    24    25 1   
    44    25    42 1   
    45    25    43 1   
    46    25    44 1   
    47    26    27 ar  
    48    26    45 1   
    49    27    46 1   
    50    39    47 1   
    51    40    47 1   
@<TRIPOS>SUBSTRUCTURE
     1 96S         1 TEMP              0 ****  ****    0 ROOT
