@<TRIPOS>MOLECULE
96S
   48    51     1     0     0
SMALL
abcg2


@<TRIPOS>ATOM
      1 CL          -1.2220    -1.1700    -1.9330 cl         1 96S      -0.208000
      2 C19         -0.4380     2.7760     0.9280 c          1 96S       0.573000
      3 N           -1.6450     2.1330     0.8710 n          1 96S      -0.290000
      4 C1          -2.5340     2.0510     2.0110 c3         1 96S       0.114000
      5 C           -3.5700     3.1630     2.0360 c3         1 96S      -0.115100
      6 N1           0.0290     2.7750    -0.3590 n          1 96S      -0.298000
      7 C12          1.3570     3.1900    -0.7300 c3         1 96S       0.108700
      8 C13          2.3060     2.0350    -0.7000 cc         1 96S       0.390800
      9 N4           2.5620     1.2900    -1.8050 na         1 96S      -0.298600
     10 C18          3.4050     0.2860    -1.4260 ca         1 96S      -0.135200
     11 C17          4.0200    -0.7730    -2.0710 ca         1 96S      -0.063000
     12 C16          4.8250    -1.5740    -1.2820 ca         1 96S      -0.140000
     13 C15          4.9610    -1.2670     0.0770 ca         1 96S       0.432000
     14 CL1          5.9810    -2.2950     1.0420 cl         1 96S      -0.169000
     15 N3           4.3870    -0.2730     0.7010 nb         1 96S      -0.591000
     16 C14          3.6110     0.5000    -0.0520 ca         1 96S       0.478000
     17 N2           2.9160     1.5950     0.3690 nd         1 96S      -0.594700
     18 C11         -0.8750     2.1300    -1.1880 cc         1 96S      -0.174400
     19 C2          -1.9190     1.7420    -0.4390 cd         1 96S      -0.042600
     20 C4          -3.2840    -0.3880    -0.3460 ca         1 96S      -0.114300
     21 C10         -2.4560    -1.4380    -0.7430 ca         1 96S       0.173000
     22 C9          -2.5900    -2.7190    -0.2440 ca         1 96S      -0.141000
     23 C7          -3.5900    -3.0000     0.6870 ca         1 96S       0.157100
     24 O           -3.6460    -4.2680     1.1260 os         1 96S      -0.335100
     25 C8          -4.6520    -4.6170     2.0580 c3         1 96S       0.146900
     26 C6          -4.4510    -1.9830     1.0870 ca         1 96S      -0.197000
     27 C5          -4.2840    -0.7080     0.5650 ca         1 96S      -0.064000
     28 H1          -3.0150     1.0740     2.0060 h1         1 96S       0.066700
     29 H2          -1.9170     2.0860     2.9070 h1         1 96S       0.066700
     30 H3          -3.0930     4.1430     2.0660 hc         1 96S       0.042700
     31 H4          -4.2180     3.1280     1.1600 hc         1 96S       0.042700
     32 H5          -4.1990     3.0660     2.9200 hc         1 96S       0.042700
     33 H6           1.3270     3.6370    -1.7240 h1         1 96S       0.085200
     34 H7           1.6980     3.9560    -0.0360 h1         1 96S       0.085200
     35 H8           2.2120     1.4620    -2.7350 hn         1 96S       0.359000
     36 H9           3.8890    -0.9740    -3.1260 ha         1 96S       0.126000
     37 H10          5.3420    -2.4230    -1.7050 ha         1 96S       0.139000
     38 H12         -0.6990     2.0020    -2.2430 h4         1 96S       0.218000
     39 H13         -4.0430     1.5810    -0.5770 hc         1 96S       0.062200
     40 H14         -3.1530     1.0150    -1.9640 hc         1 96S       0.062200
     41 H15         -1.9270    -3.5090    -0.5730 ha         1 96S       0.145000
     42 H16         -4.5610    -4.0490     2.9870 h1         1 96S       0.044033
     43 H17         -5.6540    -4.4680     1.6490 h1         1 96S       0.044033
     44 H18         -4.5160    -5.6730     2.2770 h1         1 96S       0.044033
     45 H19         -5.2490    -2.1570     1.7950 ha         1 96S       0.123000
     46 H20         -4.9680     0.0710     0.8800 ha         1 96S       0.114000
     47 C3          -3.1520     1.0210    -0.8720 c3         1 96S       0.049100
     48 O1           0.1070     3.2590     1.9150 o          1 96S      -0.564000
@<TRIPOS>BOND
     1     1    21 1   
     2     2     3 1   
     3     2     6 1   
     4     2    48 2   
     5     3     4 1   
     6     3    19 1   
     7     4     5 1   
     8     4    28 1   
     9     4    29 1   
    10     5    30 1   
    11     5    31 1   
    12     5    32 1   
    13     6     7 1   
    14     6    18 1   
    15     7     8 1   
    16     7    33 1   
    17     7    34 1   
    18     8     9 1   
    19     8    17 2   
    20     9    10 1   
    21     9    35 1   
    22    10    11 ar  
    23    10    16 ar  
    24    11    12 ar  
    25    11    36 1   
    26    12    13 ar  
    27    12    37 1   
    28    13    14 1   
    29    13    15 ar  
    30    15    16 ar  
    31    16    17 1   
    32    18    19 2   
    33    18    38 1   
    34    19    47 1   
    35    20    21 ar  
    36    20    27 ar  
    37    20    47 1   
    38    21    22 ar  
    39    22    23 ar  
    40    22    41 1   
    41    23    24 1   
    42    23    26 ar  
    43    24    25 1   
    44    25    42 1   
    45    25    43 1   
    46    25    44 1   
    47    26    27 ar  
    48    26    45 1   
    49    27    46 1   
    50    39    47 1   
    51    40    47 1   
@<TRIPOS>SUBSTRUCTURE
     1 96S         1 TEMP              0 ****  ****    0 ROOT
