@<TRIPOS>MOLECULE
96U
   28    30     1     0     0
SMALL
bcc


@<TRIPOS>ATOM
      1 C1          -0.2220     1.6360     0.0120 ca         1 96U      -0.255000
      2 C2          -1.3890     2.3620     0.0090 ca         1 96U       0.179100
      3 C3          -2.6450     1.7270    -0.0800 ca         1 96U      -0.193000
      4 C4          -2.7160     0.3610    -0.1460 ca         1 96U       0.120800
      5 C5          -1.5290    -0.4240    -0.1350 ca         1 96U       0.349600
      6 C6          -0.2850     0.2290    -0.0740 ca         1 96U      -0.107300
      7 C7           0.8410    -0.6430    -0.0830 ca         1 96U       0.065800
      8 C8           0.6740    -1.9930    -0.1080 ca         1 96U      -0.281300
      9 C9          -0.6430    -2.5360    -0.1360 ca         1 96U       0.682200
     10 N10         -1.6990    -1.7620    -0.1630 nb         1 96U      -0.773000
     11 O11         -3.8960    -0.2660    -0.2150 oh         1 96U      -0.483100
     12 N12         -0.8090    -3.8820    -0.1950 nv         1 96U      -0.951500
     13 O13         -1.4150     3.7070     0.0950 oh         1 96U      -0.488100
     14 N14          2.1460    -0.1130    -0.0510 na         1 96U      -0.141000
     15 C15          3.1400    -0.4530     0.8340 cc         1 96U      -0.253600
     16 C16          4.2360     0.2480     0.4340 cd         1 96U       0.299200
     17 N17          3.9440     0.9960    -0.6750 nd         1 96U      -0.670000
     18 C18          2.6910     0.7600    -0.9400 cc         1 96U       0.408400
     19 H1           0.7310     2.1440     0.1030 ha         1 96U       0.146000
     20 H2          -3.5490     2.3240    -0.0830 ha         1 96U       0.167000
     21 H3           1.5310    -2.6540    -0.1300 ha         1 96U       0.155000
     22 H4          -3.7110    -1.2200    -0.2350 ho         1 96U       0.459000
     23 H5          -0.0510    -4.4710     0.1080 hn         1 96U       0.424300
     24 H6          -1.7280    -4.2400     0.0020 hn         1 96U       0.424300
     25 H7          -0.5190     4.0550     0.1600 ho         1 96U       0.430000
     26 H8           2.9690    -1.1300     1.6540 h4         1 96U       0.178000
     27 H9           5.2150     0.2570     0.8880 h4         1 96U       0.041100
     28 H10          2.1250     1.1640    -1.7660 h5         1 96U       0.063100
@<TRIPOS>BOND
     1     1     2 ar  
     2     1     6 ar  
     3     1    19 1   
     4     2     3 ar  
     5     2    13 1   
     6     3     4 ar  
     7     3    20 1   
     8     4     5 ar  
     9     4    11 1   
    10     5     6 ar  
    11     5    10 ar  
    12     6     7 ar  
    13     7     8 ar  
    14     7    14 1   
    15     8     9 ar  
    16     8    21 1   
    17     9    10 ar  
    18     9    12 1   
    19    11    22 1   
    20    12    23 1   
    21    12    24 1   
    22    13    25 1   
    23    14    15 1   
    24    14    18 1   
    25    15    16 2   
    26    15    26 1   
    27    16    17 1   
    28    16    27 1   
    29    17    18 2   
    30    18    28 1   
@<TRIPOS>SUBSTRUCTURE
     1 96U         1 TEMP              0 ****  ****    0 ROOT
