@<TRIPOS>MOLECULE
96U
   28    30     1     0     0
SMALL
No Charge or Current Charge


@<TRIPOS>ATOM
      1 C1          -0.2540     1.6130     0.0330 ca         1 96U      -0.237000
      2 C2          -1.4380     2.3650     0.0270 ca         1 96U       0.179100
      3 C3          -2.6790     1.7270    -0.0630 ca         1 96U      -0.175000
      4 C4          -2.7380     0.3300    -0.1370 ca         1 96U       0.186100
      5 C5          -1.5620    -0.4590    -0.1300 ca         1 96U       0.219000
      6 C6          -0.3010     0.1990    -0.0540 ca         1 96U      -0.042000
      7 C7           0.8760    -0.5960    -0.0530 ca         1 96U       0.065800
      8 C8           0.7290    -1.9910    -0.1070 ca         1 96U      -0.198000
      9 C9          -0.5550    -2.5230    -0.1770 ca         1 96U       0.616900
     10 N10         -1.6740    -1.8150    -0.1910 nb         1 96U      -0.773000
     11 O11         -3.9500    -0.2950    -0.2150 oh         1 96U      -0.522100
     12 N12         -0.8220    -3.8280    -0.2330 nv         1 96U      -1.061900
     13 O13         -1.3860     3.7220     0.1110 oh         1 96U      -0.527100
     14 N14          2.1600    -0.0500    -0.0120 na         1 96U      -0.090300
     15 C15          3.1310    -0.4130     0.8860 cc         1 96U      -0.221000
     16 C16          4.2510     0.2420     0.4340 cd         1 96U       0.233900
     17 N17          3.9840     0.9470    -0.7330 nd         1 96U      -0.670000
     18 C18          2.7000     0.7330    -1.0030 cc         1 96U       0.408400
     19 H1           0.6960     2.1330     0.1200 ha         1 96U       0.128000
     20 H2          -3.5930     2.3120    -0.0680 ha         1 96U       0.149000
     21 H3           1.5930    -2.6470    -0.1100 ha         1 96U       0.137000
     22 H4          -3.7230    -1.2540    -0.2540 ho         1 96U       0.498000
     23 H5          -0.1170    -4.4610     0.1280 hn         1 96U       0.479500
     24 H6          -1.7860    -4.0720    -0.0450 hn         1 96U       0.479500
     25 H7          -0.4460     3.9930     0.1730 ho         1 96U       0.469000
     26 H8           2.9670    -1.0630     1.7360 h4         1 96U       0.160000
     27 H9           5.2410     0.2330     0.8750 h4         1 96U       0.041100
     28 H10          2.1330     1.0970    -1.8520 h5         1 96U       0.063100
@<TRIPOS>BOND
     1     1     2 ar  
     2     1     6 ar  
     3     1    19 1   
     4     2     3 ar  
     5     2    13 1   
     6     3     4 ar  
     7     3    20 1   
     8     4     5 ar  
     9     4    11 1   
    10     5     6 ar  
    11     5    10 ar  
    12     6     7 ar  
    13     7     8 ar  
    14     7    14 1   
    15     8     9 ar  
    16     8    21 1   
    17     9    10 ar  
    18     9    12 1   
    19    11    22 1   
    20    12    23 1   
    21    12    24 1   
    22    13    25 1   
    23    14    15 1   
    24    14    18 1   
    25    15    16 2   
    26    15    26 1   
    27    16    17 1   
    28    16    27 1   
    29    17    18 2   
    30    18    28 1   
@<TRIPOS>SUBSTRUCTURE
     1 96U         1 TEMP              0 ****  ****    0 ROOT
