@<TRIPOS>MOLECULE
96X
   35    37     1     0     0
SMALL
No Charge or Current Charge


@<TRIPOS>ATOM
      1 C1           1.3760    -2.1250     0.5720 ca         1 96X      -0.146000
      2 C2           1.0440    -3.4340     0.1840 ca         1 96X      -0.060000
      3 C3          -0.2460    -3.7210    -0.2860 ca         1 96X      -0.163000
      4 C4          -1.2000    -2.6980    -0.3660 ca         1 96X       0.179100
      5 C5          -0.8890    -1.3720     0.0180 ca         1 96X       0.220000
      6 C6           0.4200    -1.0840     0.4950 ca         1 96X      -0.045000
      7 C7           0.7290     0.2480     0.8750 ca         1 96X      -0.042300
      8 C8          -0.2890     1.2130     0.7630 ca         1 96X      -0.174000
      9 C9          -1.5560     0.8370     0.3000 ca         1 96X       0.500900
     10 N10         -1.8520    -0.4190    -0.0820 nb         1 96X      -0.705000
     11 O11         -2.4590    -2.9760    -0.8190 oh         1 96X      -0.524100
     12 N12         -2.5690     1.7950     0.1380 ns         1 96X      -0.336900
     13 C13          2.1040     0.6860     1.3810 c3         1 96X       0.116900
     14 N14          3.0700     0.9160     0.2950 na         1 96X      -0.171500
     15 C15          3.0510     1.9740    -0.5900 cc         1 96X       0.384400
     16 N16          4.0590     1.8900    -1.4460 nd         1 96X      -0.668000
     17 C17          4.7480     0.7450    -1.1010 cd         1 96X       0.230900
     18 C18          4.1570     0.1310    -0.0280 cc         1 96X      -0.223000
     19 C19         -3.9360     1.6640    -0.0050 c          1 96X       0.613100
     20 O20         -4.5450     0.6030     0.0230 o          1 96X      -0.533100
     21 C21         -4.6620     2.9920    -0.1920 c3         1 96X      -0.187100
     22 H1           2.3830    -1.9410     0.9320 ha         1 96X       0.112000
     23 H2           1.7880    -4.2250     0.2480 ha         1 96X       0.117000
     24 H3          -0.5060    -4.7330    -0.5860 ha         1 96X       0.135000
     25 H4          -0.1040     2.2490     1.0320 ha         1 96X       0.119000
     26 H5          -2.9330    -2.1110    -0.7690 ho         1 96X       0.511000
     27 H6          -2.2310     2.7480     0.1320 hn         1 96X       0.154000
     28 H7           2.0020     1.6180     1.9510 h1         1 96X       0.070700
     29 H8           2.5070    -0.0620     2.0750 h1         1 96X       0.070700
     30 H9           2.2930     2.7480    -0.5570 h5         1 96X       0.048100
     31 H10          5.6330     0.4290    -1.6410 h4         1 96X       0.039100
     32 H11          4.4290    -0.7710     0.5060 h4         1 96X       0.159000
     33 H12         -4.2290     3.5170    -1.0500 hc         1 96X       0.066033
     34 H13         -5.7460     2.8690    -0.2960 hc         1 96X       0.066033
     35 H14         -4.4080     3.6570     0.6410 hc         1 96X       0.066033
@<TRIPOS>BOND
     1     1     2 ar  
     2     1     6 ar  
     3     1    22 1   
     4     2     3 ar  
     5     2    23 1   
     6     3     4 ar  
     7     3    24 1   
     8     4     5 ar  
     9     4    11 1   
    10     5     6 ar  
    11     5    10 ar  
    12     6     7 ar  
    13     7     8 ar  
    14     7    13 1   
    15     8     9 ar  
    16     8    25 1   
    17     9    10 ar  
    18     9    12 1   
    19    11    26 1   
    20    12    19 1   
    21    12    27 1   
    22    13    14 1   
    23    13    28 1   
    24    13    29 1   
    25    14    15 1   
    26    14    18 1   
    27    15    16 2   
    28    15    30 1   
    29    16    17 1   
    30    17    18 2   
    31    17    31 1   
    32    18    32 1   
    33    19    20 2   
    34    19    21 1   
    35    21    33 1   
    36    21    34 1   
    37    21    35 1   
@<TRIPOS>SUBSTRUCTURE
     1 96X         1 TEMP              0 ****  ****    0 ROOT
