@<TRIPOS>MOLECULE
96X
   35    37     1     0     0
SMALL
bcc


@<TRIPOS>ATOM
      1 C1           1.3850    -2.2500     0.7640 ca         1 96X      -0.164000
      2 C2           0.9920    -3.5180     0.4140 ca         1 96X      -0.078000
      3 C3          -0.2940    -3.7810    -0.0900 ca         1 96X      -0.181000
      4 C4          -1.1900    -2.7520    -0.2370 ca         1 96X       0.113800
      5 C5          -0.8080    -1.4300     0.1200 ca         1 96X       0.350600
      6 C6           0.4840    -1.1730     0.6180 ca         1 96X      -0.110300
      7 C7           0.7640     0.1860     0.9440 ca         1 96X      -0.042300
      8 C8          -0.2120     1.1210     0.7740 ca         1 96X      -0.257300
      9 C9          -1.4830     0.7400     0.2630 ca         1 96X       0.566200
     10 N10         -1.7590    -0.4890    -0.0530 nb         1 96X      -0.705000
     11 O11         -2.4260    -2.9540    -0.7070 oh         1 96X      -0.485100
     12 N12         -2.4260     1.7420     0.1150 ns         1 96X      -0.570400
     13 C13          2.1230     0.6250     1.4290 c3         1 96X       0.087600
     14 N14          2.9770     1.0100     0.3230 na         1 96X      -0.192900
     15 C15          3.1090     2.2600    -0.1730 cc         1 96X       0.384400
     16 N16          3.8890     2.2900    -1.2220 nd         1 96X      -0.668000
     17 C17          4.2760     0.9950    -1.4210 cd         1 96X       0.296200
     18 C18          3.7190     0.1830    -0.4750 cc         1 96X      -0.255600
     19 C19         -3.7200     1.6540    -0.3380 c          1 96X       0.680100
     20 O20         -4.2460     0.6210    -0.6890 o          1 96X      -0.533100
     21 C21         -4.4190     2.9890    -0.3590 c3         1 96X      -0.187100
     22 H1           2.3800    -2.0920     1.1560 ha         1 96X       0.130000
     23 H2           1.6840    -4.3410     0.5290 ha         1 96X       0.135000
     24 H3          -0.5780    -4.7910    -0.3570 ha         1 96X       0.153000
     25 H4          -0.0270     2.1600     1.0240 ha         1 96X       0.137000
     26 H5          -2.8690    -2.0870    -0.7300 ho         1 96X       0.472000
     27 H6          -2.1110     2.6640     0.3750 hn         1 96X       0.320500
     28 H7           2.0200     1.4860     2.0900 h1         1 96X       0.070700
     29 H8           2.6210    -0.1520     2.0070 h1         1 96X       0.070700
     30 H9           2.6180     3.1100     0.2780 h5         1 96X       0.048100
     31 H10          4.9370     0.7130    -2.2260 h4         1 96X       0.039100
     32 H11          3.7960    -0.8760    -0.3020 h4         1 96X       0.177000
     33 H12         -3.9290     3.6660    -1.0610 hc         1 96X       0.066033
     34 H13         -5.4550     2.8650    -0.6610 hc         1 96X       0.066033
     35 H14         -4.3920     3.4630     0.6230 hc         1 96X       0.066033
@<TRIPOS>BOND
     1     1     2 ar  
     2     1     6 ar  
     3     1    22 1   
     4     2     3 ar  
     5     2    23 1   
     6     3     4 ar  
     7     3    24 1   
     8     4     5 ar  
     9     4    11 1   
    10     5     6 ar  
    11     5    10 ar  
    12     6     7 ar  
    13     7     8 ar  
    14     7    13 1   
    15     8     9 ar  
    16     8    25 1   
    17     9    10 ar  
    18     9    12 1   
    19    11    26 1   
    20    12    19 1   
    21    12    27 1   
    22    13    14 1   
    23    13    28 1   
    24    13    29 1   
    25    14    15 1   
    26    14    18 1   
    27    15    16 2   
    28    15    30 1   
    29    16    17 1   
    30    17    18 2   
    31    17    31 1   
    32    18    32 1   
    33    19    20 2   
    34    19    21 1   
    35    21    33 1   
    36    21    34 1   
    37    21    35 1   
@<TRIPOS>SUBSTRUCTURE
     1 96X         1 TEMP              0 ****  ****    0 ROOT
