@<TRIPOS>MOLECULE
96Y
   49    53     1     0     0
SMALL
No Charge or Current Charge


@<TRIPOS>ATOM
      1 C9          -1.8860     0.7400    -0.0070 ca         1 96Y      -0.092000
      2 C2          -2.8120    -3.2340     1.2160 ca         1 96Y       0.308300
      3 C10         -1.6870     2.0550    -0.4380 ca         1 96Y       0.007800
      4 C6          -3.5430    -1.1540     0.4760 cp         1 96Y       0.256000
      5 C3          -4.1560    -3.6990     1.2570 ca         1 96Y       0.289900
      6 N4          -5.2110    -2.9110     0.9120 nb         1 96Y      -0.636000
      7 C5          -4.8910    -1.6430     0.5230 ca         1 96Y       0.322900
      8 N7          -2.5010    -1.9690     0.8310 nb         1 96Y      -0.653000
      9 C8          -3.2290     0.2600     0.0340 cp         1 96Y       0.296000
     10 C11         -2.7390     2.8270    -0.7900 ca         1 96Y      -0.291900
     11 C12         -4.0440     2.3410    -0.7400 ca         1 96Y       0.413900
     12 N13         -4.2790     1.0660    -0.3290 nb         1 96Y      -0.694000
     13 C14         -2.1980     4.1030    -1.1720 cc         1 96Y       0.387800
     14 N15         -0.8570     4.1260    -1.0590 nd         1 96Y      -0.511100
     15 N16         -0.5580     2.8330    -0.5990 na         1 96Y       0.064100
     16 C17          0.7460     2.3780    -0.3320 ca         1 96Y       0.478500
     17 C18          1.5560     3.2060     0.4770 ca         1 96Y      -0.144000
     18 C19          2.8620     2.8160     0.8100 ca         1 96Y      -0.062000
     19 C20          3.3290     1.5880     0.3230 ca         1 96Y      -0.154000
     20 C21          2.4780     0.8040    -0.4760 ca         1 96Y       0.388300
     21 N22          1.2260     1.1930    -0.7990 nb         1 96Y      -0.708000
     22 C23          2.8970    -0.5560    -1.0420 c6         1 96Y      -0.208000
     23 C24          4.2740    -0.5050    -1.7490 c6         1 96Y       0.162800
     24 N25          4.6230    -1.8340    -2.3100 n7         1 96Y      -0.850400
     25 C26          4.6950    -2.8980    -1.2800 c6         1 96Y       0.153800
     26 C27          3.3420    -3.0360    -0.5480 c6         1 96Y      -0.168400
     27 C28          2.8870    -1.6780     0.0290 c6         1 96Y       0.190000
     28 F29          3.7220    -1.3330     1.1080 f          1 96Y      -0.115500
     29 F30          1.5920    -1.8160     0.5600 f          1 96Y      -0.115500
     30 H1          -1.0520     0.1070     0.2790 ha         1 96Y       0.176000
     31 H2          -0.8590    -4.0990     0.8370 hc         1 96Y       0.051367
     32 H3          -1.1960    -3.7860     2.5490 hc         1 96Y       0.051367
     33 H4          -1.9540    -5.1640     1.7330 hc         1 96Y       0.051367
     34 H5          -4.3890    -4.7160     1.5700 h4         1 96Y       0.028100
     35 H6          -5.7290    -1.0060     0.2440 h4         1 96Y       0.053100
     36 H7          -4.9020     2.9510    -1.0200 h4         1 96Y       0.026100
     37 H8          -2.6860     5.0040    -1.5180 h4         1 96Y       0.057800
     38 H9           1.1640     4.1490     0.8480 ha         1 96Y       0.153000
     39 H10          3.4930     3.4470     1.4340 ha         1 96Y       0.127000
     40 H11          4.3300     1.2500     0.5710 ha         1 96Y       0.135000
     41 H12          2.1620    -0.8390    -1.8070 hc         1 96Y       0.093700
     42 H13          4.2460     0.2420    -2.5580 h1         1 96Y       0.066200
     43 H14          5.0570    -0.1930    -1.0410 h1         1 96Y       0.066200
     44 H15          3.9070    -2.0950    -3.0000 hn         1 96Y       0.413000
     45 H17          4.9610    -3.8570    -1.7500 h1         1 96Y       0.064700
     46 H18          5.4870    -2.6580    -0.5530 h1         1 96Y       0.064700
     47 H19          2.5830    -3.4150    -1.2450 hc         1 96Y       0.072200
     48 H20          3.4260    -3.7800     0.2560 hc         1 96Y       0.072200
     49 C1          -1.6410    -4.1200     1.6050 c3         1 96Y      -0.138400
@<TRIPOS>BOND
     1     1     3 ar  
     2     1     9 ar  
     3     1    30 1   
     4     2     5 ar  
     5     2     8 ar  
     6     2    49 1   
     7     3    10 ar  
     8     3    15 1   
     9     4     7 ar  
    10     4     8 ar  
    11     4     9 1   
    12     5     6 ar  
    13     5    34 1   
    14     6     7 ar  
    15     7    35 1   
    16     9    12 ar  
    17    10    11 ar  
    18    10    13 1   
    19    11    12 ar  
    20    11    36 1   
    21    13    14 2   
    22    13    37 1   
    23    14    15 1   
    24    15    16 1   
    25    16    17 ar  
    26    16    21 ar  
    27    17    18 ar  
    28    17    38 1   
    29    18    19 ar  
    30    18    39 1   
    31    19    20 ar  
    32    19    40 1   
    33    20    21 ar  
    34    20    22 1   
    35    22    23 1   
    36    22    27 1   
    37    22    41 1   
    38    23    24 1   
    39    23    42 1   
    40    23    43 1   
    41    24    25 1   
    42    24    44 1   
    43    25    26 1   
    44    25    45 1   
    45    25    46 1   
    46    26    27 1   
    47    26    47 1   
    48    26    48 1   
    49    27    28 1   
    50    27    29 1   
    51    31    49 1   
    52    32    49 1   
    53    33    49 1   
@<TRIPOS>SUBSTRUCTURE
     1 96Y         1 TEMP              0 ****  ****    0 ROOT
