@<TRIPOS>MOLECULE
96Y
   49    53     1     0     0
SMALL
abcg2


@<TRIPOS>ATOM
      1 C9          -1.7330     0.6880    -0.0700 ca         1 96Y      -0.092000
      2 C2          -2.3890    -3.3240     0.4120 ca         1 96Y       0.308300
      3 C10         -1.5950     2.0640    -0.2390 ca         1 96Y       0.007800
      4 C6          -3.2670    -1.2250     0.2330 cp         1 96Y       0.256000
      5 C3          -3.6810    -3.8310     0.5610 ca         1 96Y       0.289900
      6 N4          -4.7480    -3.0470     0.5490 nb         1 96Y      -0.636000
      7 C5          -4.5510    -1.7480     0.3880 ca         1 96Y       0.322900
      8 N7          -2.2070    -2.0230     0.2480 nb         1 96Y      -0.653000
      9 C8          -3.0290     0.2230     0.0500 cp         1 96Y       0.296000
     10 C11         -2.7260     2.8910    -0.2680 ca         1 96Y      -0.291900
     11 C12         -3.9860     2.3040    -0.1410 ca         1 96Y       0.413900
     12 N13         -4.1250     1.0080     0.0110 nb         1 96Y      -0.694000
     13 C14         -2.2100     4.2080    -0.4200 cc         1 96Y       0.387800
     14 N15         -0.9110     4.1860    -0.4750 nd         1 96Y      -0.511100
     15 N16         -0.5230     2.8990    -0.3720 na         1 96Y       0.064100
     16 C17          0.8400     2.5710    -0.3930 ca         1 96Y       0.478500
     17 C18          1.8180     3.5520    -0.2670 ca         1 96Y      -0.144000
     18 C19          3.1310     3.1200    -0.2810 ca         1 96Y      -0.062000
     19 C20          3.4220     1.7680    -0.4080 ca         1 96Y      -0.154000
     20 C21          2.3660     0.8750    -0.5370 ca         1 96Y       0.388300
     21 N22          1.1030     1.2900    -0.5320 nb         1 96Y      -0.708000
     22 C23          2.5580    -0.6100    -0.6960 c6         1 96Y      -0.208000
     23 C24          3.7130    -0.9960    -1.6420 c6         1 96Y       0.162800
     24 N25          3.8960    -2.4250    -1.7760 n7         1 96Y      -0.850400
     25 C26          4.0700    -3.0850    -0.4970 c6         1 96Y       0.153800
     26 C27          2.9450    -2.7940     0.5020 c6         1 96Y      -0.168400
     27 C28          2.7430    -1.3060     0.6440 c6         1 96Y       0.190000
     28 F29          3.8210    -0.7570     1.2950 f          1 96Y      -0.115500
     29 F30          1.6720    -1.0460     1.4550 f          1 96Y      -0.115500
     30 H1          -0.8930     0.0160    -0.0290 ha         1 96Y       0.176000
     31 H2          -0.5730    -4.0540    -0.4520 hc         1 96Y       0.051367
     32 H3          -0.5600    -3.9800     1.3040 hc         1 96Y       0.051367
     33 H4          -1.4600    -5.2590     0.4880 hc         1 96Y       0.051367
     34 H5          -3.8450    -4.8950     0.6900 h4         1 96Y       0.028100
     35 H6          -5.4210    -1.1050     0.3790 h4         1 96Y       0.053100
     36 H7          -4.8880     2.9050    -0.1640 h4         1 96Y       0.026100
     37 H8          -2.7490     5.1400    -0.4890 h4         1 96Y       0.057800
     38 H9           1.5680     4.5970    -0.1600 ha         1 96Y       0.153000
     39 H10          3.9330     3.8400    -0.1830 ha         1 96Y       0.127000
     40 H11          4.4480     1.4300    -0.4160 ha         1 96Y       0.135000
     41 H12          1.6310    -1.0060    -1.1230 hc         1 96Y       0.093700
     42 H13          3.5150    -0.5680    -2.6250 h1         1 96Y       0.066200
     43 H14          4.6530    -0.5580    -1.2940 h1         1 96Y       0.066200
     44 H15          3.1060    -2.8270    -2.2670 hn         1 96Y       0.413000
     45 H17          4.1400    -4.1610    -0.6590 h1         1 96Y       0.064700
     46 H18          5.0280    -2.7710    -0.0730 h1         1 96Y       0.064700
     47 H19          2.0120    -3.2390     0.1440 hc         1 96Y       0.072200
     48 H20          3.1670    -3.2360     1.4760 hc         1 96Y       0.072200
     49 C1          -1.1840    -4.2070     0.4380 c3         1 96Y      -0.138400
@<TRIPOS>BOND
     1     1     3 ar  
     2     1     9 ar  
     3     1    30 1   
     4     2     5 ar  
     5     2     8 ar  
     6     2    49 1   
     7     3    10 ar  
     8     3    15 1   
     9     4     7 ar  
    10     4     8 ar  
    11     4     9 1   
    12     5     6 ar  
    13     5    34 1   
    14     6     7 ar  
    15     7    35 1   
    16     9    12 ar  
    17    10    11 ar  
    18    10    13 1   
    19    11    12 ar  
    20    11    36 1   
    21    13    14 2   
    22    13    37 1   
    23    14    15 1   
    24    15    16 1   
    25    16    17 ar  
    26    16    21 ar  
    27    17    18 ar  
    28    17    38 1   
    29    18    19 ar  
    30    18    39 1   
    31    19    20 ar  
    32    19    40 1   
    33    20    21 ar  
    34    20    22 1   
    35    22    23 1   
    36    22    27 1   
    37    22    41 1   
    38    23    24 1   
    39    23    42 1   
    40    23    43 1   
    41    24    25 1   
    42    24    44 1   
    43    25    26 1   
    44    25    45 1   
    45    25    46 1   
    46    26    27 1   
    47    26    47 1   
    48    26    48 1   
    49    27    28 1   
    50    27    29 1   
    51    31    49 1   
    52    32    49 1   
    53    33    49 1   
@<TRIPOS>SUBSTRUCTURE
     1 96Y         1 TEMP              0 ****  ****    0 ROOT
