@<TRIPOS>MOLECULE
970
   51    55     1     0     0
SMALL
abcg2


@<TRIPOS>ATOM
      1 C10        212.0810   164.4520   288.6420 ca         1 970       0.019000
      2 C15        217.6410   163.8080   288.3310 c6         1 970       0.166600
      3 C17        217.0470   163.2340   290.5470 ca         1 970       0.121100
      4 C20        215.7390   163.7470   292.9640 ca         1 970       0.094100
      5 C21        215.4560   164.4900   291.8300 ca         1 970      -0.148000
      6 C22        216.0900   164.2410   290.6100 ca         1 970      -0.120300
      7 C24        214.2980   165.3870   289.2770 c          1 970       0.611700
      8 C01        210.7760   160.4520   284.1270 c3         1 970      -0.055900
      9 C02        212.0760   160.9530   284.6840 c2         1 970      -0.137400
     10 C03        212.9320   161.6550   283.9490 c2         1 970      -0.294000
     11 C04        212.3020   160.6160   286.1390 c5         1 970       0.195500
     12 C05        213.6570   161.0060   286.7490 c5         1 970      -0.030100
     13 C06        213.3130   162.2950   287.4240 ca         1 970      -0.234300
     14 C07        211.9340   162.4020   287.4820 ca         1 970       0.200100
     15 O08        211.3110   161.3730   286.8980 os         1 970      -0.325100
     16 C09        211.2820   163.4770   288.0830 ca         1 970      -0.190000
     17 C11        213.4810   164.3770   288.6140 ca         1 970      -0.304600
     18 C12        214.0990   163.2790   287.9880 ca         1 970       0.244100
     19 O13        215.4280   163.1380   287.9110 os         1 970      -0.323100
     20 C14        216.2260   164.2940   288.1350 c6         1 970       0.141300
     21 O16        217.7320   162.9150   289.4230 os         1 970      -0.328100
     22 C18        217.3390   162.4800   291.6820 ca         1 970      -0.126000
     23 C19        216.7010   162.7270   292.8790 ca         1 970       0.107100
     24 C23        215.7760   165.0570   289.3720 c6         1 970      -0.144400
     25 O25        213.8450   166.4080   289.7560 o          1 970      -0.528100
     26 O26        215.1660   163.9270   294.1710 os         1 970      -0.326100
     27 C27        214.1740   164.9230   294.2960 c3         1 970       0.142900
     28 O28        217.0170   162.0010   293.9840 os         1 970      -0.347100
     29 C29        216.1900   160.8630   294.1920 c3         1 970       0.150900
     30 H1         211.6200   165.3030   289.1260 ha         1 970       0.133000
     31 H2         217.9950   163.2640   287.4560 h1         1 970       0.068700
     32 H3         218.2930   164.6750   288.4780 h1         1 970       0.068700
     33 H4         214.7290   165.2890   291.8790 ha         1 970       0.132000
     34 H5         210.7010   159.3660   284.2280 hc         1 970       0.044700
     35 H6         209.9230   160.8770   284.6600 hc         1 970       0.044700
     36 H7         210.6690   160.7020   283.0730 hc         1 970       0.044700
     37 H8         213.8750   162.0290   284.3260 ha         1 970       0.168000
     38 H9         212.7120   161.8870   282.9150 ha         1 970       0.168000
     39 H10        212.0740   159.5620   286.3060 h1         1 970       0.081700
     40 H11        213.9810   160.2580   287.4770 hc         1 970       0.070200
     41 H12        214.4500   161.0860   286.0080 hc         1 970       0.070200
     42 H13        210.2030   163.5440   288.1110 ha         1 970       0.138000
     43 H14        216.1820   164.9440   287.2540 h1         1 970       0.066700
     44 H15        218.0860   161.6960   291.6280 ha         1 970       0.141000
     45 H16        216.3270   166.0010   289.4010 hc         1 970       0.093700
     46 H17        213.8370   164.8980   295.3290 h1         1 970       0.041700
     47 H18        214.5650   165.9220   294.0800 h1         1 970       0.041700
     48 H19        213.3170   164.7320   293.6440 h1         1 970       0.041700
     49 H20        216.5420   160.3730   295.0980 h1         1 970       0.036367
     50 H21        215.1420   161.1410   294.3280 h1         1 970       0.036367
     51 H22        216.2630   160.1600   293.3590 h1         1 970       0.036367
@<TRIPOS>BOND
     1     1    16 ar  
     2     1    17 ar  
     3     1    30 1   
     4     2    20 1   
     5     2    21 1   
     6     2    31 1   
     7     2    32 1   
     8     3     6 ar  
     9     3    21 1   
    10     3    22 ar  
    11     4     5 ar  
    12     4    23 ar  
    13     4    26 1   
    14     5     6 ar  
    15     5    33 1   
    16     6    24 1   
    17     7    17 1   
    18     7    24 1   
    19     7    25 2   
    20     8     9 1   
    21     8    34 1   
    22     8    35 1   
    23     8    36 1   
    24     9    10 2   
    25     9    11 1   
    26    10    37 1   
    27    10    38 1   
    28    11    12 1   
    29    11    15 1   
    30    11    39 1   
    31    12    13 1   
    32    12    40 1   
    33    12    41 1   
    34    13    14 ar  
    35    13    18 ar  
    36    14    15 1   
    37    14    16 ar  
    38    16    42 1   
    39    17    18 ar  
    40    18    19 1   
    41    19    20 1   
    42    20    24 1   
    43    20    43 1   
    44    22    23 ar  
    45    22    44 1   
    46    23    28 1   
    47    24    45 1   
    48    26    27 1   
    49    27    46 1   
    50    27    47 1   
    51    27    48 1   
    52    28    29 1   
    53    29    49 1   
    54    29    50 1   
    55    29    51 1   
@<TRIPOS>SUBSTRUCTURE
     1 970         1 TEMP              0 ****  ****    0 ROOT
