@<TRIPOS>MOLECULE
970
   51    55     1     0     0
SMALL
No Charge or Current Charge


@<TRIPOS>ATOM
      1 C10        212.1060   164.8730   288.6090 ca         1 970       0.019000
      2 C15        217.6980   163.6490   288.2980 c6         1 970       0.166600
      3 C17        217.0560   162.8920   290.5300 ca         1 970       0.121100
      4 C20        215.7890   163.3170   293.0250 ca         1 970       0.094100
      5 C21        215.5590   164.1950   291.9370 ca         1 970      -0.148000
      6 C22        216.1670   163.9820   290.6810 ca         1 970      -0.120300
      7 C24        214.4410   165.4140   289.4320 c          1 970       0.611700
      8 C01        211.5550   159.3860   283.9890 c3         1 970      -0.055900
      9 C02        211.7250   160.8300   284.4150 c2         1 970      -0.137400
     10 C03        211.6940   161.8530   283.5390 c2         1 970      -0.294000
     11 C04        211.9440   161.1290   285.9040 c5         1 970       0.195500
     12 C05        213.4220   161.6220   286.1630 c5         1 970      -0.030100
     13 C06        213.1100   162.7700   287.0710 ca         1 970      -0.234300
     14 C07        211.7620   163.0260   287.0930 ca         1 970       0.200100
     15 O08        211.0170   162.1930   286.3090 os         1 970      -0.325100
     16 C09        211.2310   164.0790   287.8440 ca         1 970      -0.190000
     17 C11        213.4980   164.6080   288.5980 ca         1 970      -0.304600
     18 C12        214.0020   163.5580   287.8080 ca         1 970       0.244100
     19 O13        215.3450   163.2810   287.7540 os         1 970      -0.323100
     20 C14        216.2990   164.2850   288.1590 c6         1 970       0.141300
     21 O16        217.7110   162.6460   289.3400 os         1 970      -0.328100
     22 C18        217.2830   162.0140   291.5960 ca         1 970      -0.126000
     23 C19        216.6640   162.2020   292.8420 ca         1 970       0.107100
     24 C23        215.9020   164.9430   289.4970 c6         1 970      -0.144400
     25 O25        214.0660   166.4110   290.0390 o          1 970      -0.528100
     26 O26        215.1730   163.5390   294.2470 os         1 970      -0.326100
     27 C27        214.2740   164.6370   294.4900 c3         1 970       0.142900
     28 O28        216.9810   161.2570   293.8110 os         1 970      -0.347100
     29 C29        216.4570   161.2500   295.1510 c3         1 970       0.150900
     30 H1         211.7010   165.6850   289.2120 ha         1 970       0.133000
     31 H2         218.0080   163.1890   287.3500 h1         1 970       0.068700
     32 H3         218.4300   164.4290   288.5510 h1         1 970       0.068700
     33 H4         214.9070   165.0520   292.0610 ha         1 970       0.132000
     34 H5         212.4370   158.7920   284.2570 hc         1 970       0.044700
     35 H6         210.6850   158.9320   284.4780 hc         1 970       0.044700
     36 H7         211.4110   159.2940   282.9050 hc         1 970       0.044700
     37 H8         211.8190   162.8890   283.8570 ha         1 970       0.168000
     38 H9         211.5430   161.6910   282.4720 ha         1 970       0.168000
     39 H10        211.7310   160.2500   286.5280 h1         1 970       0.081700
     40 H11        214.0360   160.8480   286.6370 hc         1 970       0.070200
     41 H12        213.9330   161.9450   285.2490 hc         1 970       0.070200
     42 H13        210.1620   164.2710   287.8430 ha         1 970       0.138000
     43 H14        216.3300   165.0570   287.3760 h1         1 970       0.066700
     44 H15        217.9570   161.1740   291.4570 ha         1 970       0.141000
     45 H16        216.5110   165.8400   289.6730 hc         1 970       0.093700
     46 H17        213.9090   164.6050   295.5240 h1         1 970       0.041700
     47 H18        214.7810   165.5980   294.3400 h1         1 970       0.041700
     48 H19        213.4050   164.5850   293.8220 h1         1 970       0.041700
     49 H20        216.8590   160.3940   295.7080 h1         1 970       0.036367
     50 H21        216.7430   162.1630   295.6890 h1         1 970       0.036367
     51 H22        215.3640   161.1620   295.1440 h1         1 970       0.036367
@<TRIPOS>BOND
     1     1    16 ar  
     2     1    17 ar  
     3     1    30 1   
     4     2    20 1   
     5     2    21 1   
     6     2    31 1   
     7     2    32 1   
     8     3     6 ar  
     9     3    21 1   
    10     3    22 ar  
    11     4     5 ar  
    12     4    23 ar  
    13     4    26 1   
    14     5     6 ar  
    15     5    33 1   
    16     6    24 1   
    17     7    17 1   
    18     7    24 1   
    19     7    25 2   
    20     8     9 1   
    21     8    34 1   
    22     8    35 1   
    23     8    36 1   
    24     9    10 2   
    25     9    11 1   
    26    10    37 1   
    27    10    38 1   
    28    11    12 1   
    29    11    15 1   
    30    11    39 1   
    31    12    13 1   
    32    12    40 1   
    33    12    41 1   
    34    13    14 ar  
    35    13    18 ar  
    36    14    15 1   
    37    14    16 ar  
    38    16    42 1   
    39    17    18 ar  
    40    18    19 1   
    41    19    20 1   
    42    20    24 1   
    43    20    43 1   
    44    22    23 ar  
    45    22    44 1   
    46    23    28 1   
    47    24    45 1   
    48    26    27 1   
    49    27    46 1   
    50    27    47 1   
    51    27    48 1   
    52    28    29 1   
    53    29    49 1   
    54    29    50 1   
    55    29    51 1   
@<TRIPOS>SUBSTRUCTURE
     1 970         1 TEMP              0 ****  ****    0 ROOT
