@<TRIPOS>MOLECULE
971
   53    57     1     0     0
SMALL
abcg2


@<TRIPOS>ATOM
      1 C7          -3.3350     1.9970     0.0190 c          1 971       0.569000
      2 C9          -1.9690    -1.5150     0.1170 ca         1 971       0.555900
      3 N2          -4.6380     1.6940     0.0990 n          1 971      -0.401800
      4 C10         -0.5970    -1.3060     0.0710 ca         1 971      -0.141000
      5 C4          -4.1650    -0.6280    -0.5290 c6         1 971       0.197800
      6 N5          -2.8650    -0.4610     0.0820 nh         1 971      -0.762300
      7 C6          -2.3300     0.8650    -0.0740 c6         1 971       0.116800
      8 C1          -5.6380     2.7250     0.2690 c3         1 971       0.081300
      9 C3          -5.1350     0.3290     0.1170 c6         1 971       0.099000
     10 O8          -2.9000     3.1430     0.0080 o          1 971      -0.577000
     11 C11          0.2250    -2.4270     0.1970 ca         1 971      -0.124900
     12 C12         -0.3640    -3.6890     0.3230 ca         1 971      -0.153200
     13 C13         -1.7540    -3.8100     0.3290 ca         1 971       0.379900
     14 N14         -2.5130    -2.7450     0.2360 nb         1 971      -0.699000
     15 N15          0.6570    -4.5820     0.4040 na         1 971      -0.040400
     16 N17          1.8350    -3.9900     0.3390 nc         1 971      -0.494100
     17 C18          1.6280    -2.6930     0.2140 cd         1 971       0.273900
     18 C19          2.7320    -1.7390     0.1120 ca         1 971       0.399700
     19 C20          4.0550    -2.1520     0.0280 ca         1 971      -0.186000
     20 C21          5.0210    -1.1590    -0.0800 ca         1 971      -0.046000
     21 C22          4.6630     0.1730    -0.0980 ca         1 971      -0.216000
     22 C23          3.2960     0.5000     0.0030 ca         1 971       0.614900
     23 N24          2.3760    -0.4560     0.0940 nb         1 971      -0.758000
     24 N25          2.8480     1.8010     0.0410 nh         1 971      -0.764300
     25 C26          1.4130     2.0280    -0.0350 c6         1 971       0.212300
     26 C27          1.0450     3.4290     0.4160 c6         1 971       0.142300
     27 N28          1.7990     4.4080    -0.3380 n7         1 971      -0.854400
     28 C29          3.2130     4.2230    -0.0840 c6         1 971       0.142300
     29 C30          3.6500     2.8530    -0.5670 c6         1 971       0.212300
     30 H1          -0.1590    -0.3340    -0.0730 ha         1 971       0.150000
     31 H2          -4.1200    -0.4480    -1.6130 h1         1 971       0.062200
     32 H3          -4.5130    -1.6450    -0.3770 h1         1 971       0.062200
     33 H4          -1.8040     0.9950    -1.0330 h1         1 971       0.070200
     34 H5          -1.5990     1.0620     0.7140 h1         1 971       0.070200
     35 H6          -5.1760     3.7060     0.2780 h1         1 971       0.045367
     36 H7          -6.3620     2.6820    -0.5460 h1         1 971       0.045367
     37 H8          -6.1740     2.5820     1.2100 h1         1 971       0.045367
     38 H9          -5.3450     0.0200     1.1460 h1         1 971       0.052200
     39 H10         -6.0780     0.3050    -0.4320 h1         1 971       0.052200
     40 H11         -2.2450    -4.7730     0.4130 h4         1 971       0.023100
     41 H16          0.6050    -5.5830     0.5070 hn         1 971       0.382000
     42 H12          4.3190    -3.1990     0.0340 ha         1 971       0.138000
     43 H13          6.0670    -1.4270    -0.1530 ha         1 971       0.115000
     44 H14          5.4310     0.9260    -0.1770 ha         1 971       0.122000
     45 H15          1.0460     1.8590    -1.0570 h1         1 971       0.049450
     46 H17          0.9100     1.3160     0.6160 h1         1 971       0.049450
     47 H18         -0.0250     3.5670     0.2450 h1         1 971       0.043200
     48 H19          1.2170     3.5080     1.5010 h1         1 971       0.043200
     49 H20          1.5220     5.3410    -0.0620 hn         1 971       0.416000
     50 H22          3.7870     4.9770    -0.6240 h1         1 971       0.043200
     51 H23          3.4670     4.3190     0.9840 h1         1 971       0.043200
     52 H24          4.6980     2.7290    -0.3060 h1         1 971       0.049450
     53 H25          3.5750     2.8080    -1.6620 h1         1 971       0.049450
@<TRIPOS>BOND
     1     1     3 1   
     2     1     7 1   
     3     1    10 2   
     4     2     4 ar  
     5     2     6 1   
     6     2    14 ar  
     7     3     8 1   
     8     3     9 1   
     9     4    11 ar  
    10     4    30 1   
    11     5     6 1   
    12     5     9 1   
    13     5    31 1   
    14     5    32 1   
    15     6     7 1   
    16     7    33 1   
    17     7    34 1   
    18     8    35 1   
    19     8    36 1   
    20     8    37 1   
    21     9    38 1   
    22     9    39 1   
    23    11    12 ar  
    24    11    17 1   
    25    12    13 ar  
    26    12    15 1   
    27    13    14 ar  
    28    13    40 1   
    29    15    16 1   
    30    15    41 1   
    31    16    17 2   
    32    17    18 1   
    33    18    19 ar  
    34    18    23 ar  
    35    19    20 ar  
    36    19    42 1   
    37    20    21 ar  
    38    20    43 1   
    39    21    22 ar  
    40    21    44 1   
    41    22    23 ar  
    42    22    24 1   
    43    24    25 1   
    44    24    29 1   
    45    25    26 1   
    46    25    45 1   
    47    25    46 1   
    48    26    27 1   
    49    26    47 1   
    50    26    48 1   
    51    27    28 1   
    52    27    49 1   
    53    28    29 1   
    54    28    50 1   
    55    28    51 1   
    56    29    52 1   
    57    29    53 1   
@<TRIPOS>SUBSTRUCTURE
     1 971         1 TEMP              0 ****  ****    0 ROOT
