@<TRIPOS>MOLECULE
971
   53    57     1     0     0
SMALL
No Charge or Current Charge


@<TRIPOS>ATOM
      1 C7          -3.5580     1.8920    -0.7330 c          1 971       0.569000
      2 C9          -1.9680    -1.6100     0.0280 ca         1 971       0.555900
      3 N2          -4.8110     1.7370    -0.1070 n          1 971      -0.401800
      4 C10         -0.5650    -1.4150     0.0380 ca         1 971      -0.141000
      5 C4          -4.3490    -0.7180     0.2600 c6         1 971       0.197800
      6 N5          -2.8730    -0.5240     0.0640 nh         1 971      -0.762300
      7 C6          -2.4460     0.8660    -0.3500 c6         1 971       0.116800
      8 C1          -5.9150     2.6820    -0.3810 c3         1 971       0.081300
      9 C3          -5.0680     0.5650     0.7630 c6         1 971       0.099000
     10 O8          -3.3500     2.7950    -1.5370 o          1 971      -0.577000
     11 C11          0.2470    -2.5600    -0.0010 ca         1 971      -0.124900
     12 C12         -0.3310    -3.7850    -0.0440 ca         1 971      -0.153200
     13 C13         -1.7280    -3.9260    -0.0490 ca         1 971       0.379900
     14 N14         -2.5410    -2.8400    -0.0130 nb         1 971      -0.699000
     15 N15          0.6640    -4.7450    -0.0730 na         1 971      -0.040400
     16 N17          1.9290    -4.1310    -0.0460 nc         1 971      -0.494100
     17 C18          1.6840    -2.8020    -0.0030 cd         1 971       0.273900
     18 C19          2.7670    -1.7650     0.0360 ca         1 971       0.399700
     19 C20          4.1260    -2.1540     0.0320 ca         1 971      -0.186000
     20 C21          5.1330    -1.1810     0.0730 ca         1 971      -0.046000
     21 C22          4.7450     0.1630     0.1120 ca         1 971      -0.216000
     22 C23          3.3790     0.4840     0.1040 ca         1 971       0.614900
     23 N24          2.4160    -0.4520     0.0740 nb         1 971      -0.758000
     24 N25          2.9290     1.8170     0.1440 nh         1 971      -0.764300
     25 C26          1.5110     2.1480     0.5170 c6         1 971       0.212300
     26 C27          1.3400     3.6310     0.9870 c6         1 971       0.142300
     27 N28          1.9100     4.6190     0.0260 n7         1 971      -0.854400
     28 C29          3.3340     4.2990    -0.2790 c6         1 971       0.142300
     29 C30          3.5380     2.8300    -0.7780 c6         1 971       0.212300
     30 H1          -0.1440    -0.4200     0.0840 ha         1 971       0.150000
     31 H2          -4.8110    -1.0330    -0.6870 h1         1 971       0.062200
     32 H3          -4.5390    -1.5130     0.9960 h1         1 971       0.062200
     33 H4          -1.7810     0.8110    -1.2240 h1         1 971       0.070200
     34 H5          -1.8820     1.3350     0.4680 h1         1 971       0.070200
     35 H6          -5.5600     3.7140    -0.2660 h1         1 971       0.045367
     36 H7          -6.2770     2.5380    -1.4070 h1         1 971       0.045367
     37 H8          -6.7440     2.5160     0.3180 h1         1 971       0.045367
     38 H9          -4.7220     0.7970     1.7800 h1         1 971       0.052200
     39 H10         -6.1480     0.3690     0.8190 h1         1 971       0.052200
     40 H11         -2.2040    -4.9060    -0.0810 h4         1 971       0.023100
     41 H16          0.5460    -5.7580    -0.1070 hn         1 971       0.382000
     42 H12          4.3960    -3.2060     0.0020 ha         1 971       0.138000
     43 H13          6.1850    -1.4620     0.0800 ha         1 971       0.115000
     44 H14          5.4970     0.9440     0.1640 ha         1 971       0.122000
     45 H15          0.8520     1.9740    -0.3460 h1         1 971       0.049450
     46 H17          1.1640     1.4970     1.3330 h1         1 971       0.049450
     47 H18          0.2720     3.8420     1.1420 h1         1 971       0.043200
     48 H19          1.8400     3.7480     1.9600 h1         1 971       0.043200
     49 H20          1.8550     5.5610     0.4360 hn         1 971       0.416000
     50 H22          3.7140     4.9970    -1.0400 h1         1 971       0.043200
     51 H23          3.9380     4.4480     0.6290 h1         1 971       0.043200
     52 H24          4.6170     2.6600    -0.8990 h1         1 971       0.049450
     53 H25          3.0850     2.7330    -1.7750 h1         1 971       0.049450
@<TRIPOS>BOND
     1     1     3 1   
     2     1     7 1   
     3     1    10 2   
     4     2     4 ar  
     5     2     6 1   
     6     2    14 ar  
     7     3     8 1   
     8     3     9 1   
     9     4    11 ar  
    10     4    30 1   
    11     5     6 1   
    12     5     9 1   
    13     5    31 1   
    14     5    32 1   
    15     6     7 1   
    16     7    33 1   
    17     7    34 1   
    18     8    35 1   
    19     8    36 1   
    20     8    37 1   
    21     9    38 1   
    22     9    39 1   
    23    11    12 ar  
    24    11    17 1   
    25    12    13 ar  
    26    12    15 1   
    27    13    14 ar  
    28    13    40 1   
    29    15    16 1   
    30    15    41 1   
    31    16    17 2   
    32    17    18 1   
    33    18    19 ar  
    34    18    23 ar  
    35    19    20 ar  
    36    19    42 1   
    37    20    21 ar  
    38    20    43 1   
    39    21    22 ar  
    40    21    44 1   
    41    22    23 ar  
    42    22    24 1   
    43    24    25 1   
    44    24    29 1   
    45    25    26 1   
    46    25    45 1   
    47    25    46 1   
    48    26    27 1   
    49    26    47 1   
    50    26    48 1   
    51    27    28 1   
    52    27    49 1   
    53    28    29 1   
    54    28    50 1   
    55    28    51 1   
    56    29    52 1   
    57    29    53 1   
@<TRIPOS>SUBSTRUCTURE
     1 971         1 TEMP              0 ****  ****    0 ROOT
