@<TRIPOS>MOLECULE
972
   44    46     1     0     0
SMALL
abcg2


@<TRIPOS>ATOM
      1 C1          -4.1880    -0.7180     0.1510 ca         1 972      -0.297900
      2 C2          -4.4200     0.6040    -0.2660 ca         1 972       0.113000
      3 CL2         -6.0210     1.1240    -0.6820 cl         1 972      -0.222000
      4 C3          -3.3890     1.5140    -0.4140 ca         1 972      -0.097000
      5 C4          -2.1120     1.0610    -0.1210 ca         1 972      -0.009000
      6 C5          -1.8430    -0.2600     0.2870 ca         1 972      -0.022000
      7 C6          -2.8920    -1.1570     0.4160 ca         1 972      -0.051000
      8 C7          -5.2770    -1.6960     0.3250 ce         1 972       0.540400
      9 N1          -6.2750    -1.4310     1.1290 nv         1 972      -0.574700
     10 N2          -5.1880    -2.8390    -0.3070 nv         1 972      -0.558800
     11 N3          -0.8960     1.6610    -0.1430 na         1 972      -0.305900
     12 N4          -0.5070    -0.4320     0.4980 nc         1 972      -0.305600
     13 C8           0.0520     0.7320     0.2340 cc         1 972       0.315500
     14 C9           1.4500     1.0880     0.3190 cd         1 972      -0.341200
     15 C11          1.8020     2.4490     0.4620 cd         1 972      -0.126000
     16 C12          3.1080     2.8490     0.5290 cc         1 972      -0.267000
     17 C13          4.1330     1.8810     0.4450 cc         1 972      -0.233000
     18 C14          3.8260     0.5530     0.3040 cd         1 972      -0.005100
     19 C15          2.4540     0.0650     0.2380 c          1 972       0.597500
     20 O6           2.2290    -1.1570     0.1010 o          1 972      -0.620100
     21 O5           4.7410    -0.4420     0.2110 os         1 972      -0.323100
     22 C10          6.1070    -0.0980     0.1910 c3         1 972       0.162600
     23 C20          6.9360    -1.3510    -0.0420 c3         1 972      -0.061700
     24 C30          6.5850    -2.0230    -1.3650 c3         1 972      -0.085600
     25 C40          8.4150    -0.9830     0.0100 c3         1 972      -0.085600
     26 HC3         -3.5800     2.5230    -0.7510 ha         1 972       0.140000
     27 HC6         -2.7100    -2.1740     0.7400 ha         1 972       0.131000
     28 HH11        -6.2860    -0.5860     1.6770 hn         1 972       0.369750
     29 HH12        -7.0540    -2.0620     1.2500 hn         1 972       0.369750
     30 HH21        -5.8490    -3.5880    -0.1640 hn         1 972       0.369750
     31 HH22        -4.4600    -2.9930    -0.9870 hn         1 972       0.369750
     32 HN3         -0.7110     2.5980    -0.4630 hn         1 972       0.364000
     33 HC2          1.0280     3.2020     0.5590 ha         1 972       0.132000
     34 H5           3.3630     3.8920     0.6580 ha         1 972       0.160000
     35 HC4          5.1630     2.2120     0.5010 ha         1 972       0.162000
     36 H10A         6.3990     0.3770     1.1370 h1         1 972       0.021200
     37 H10B         6.3100     0.6280    -0.6100 h1         1 972       0.021200
     38 H20          6.7320    -2.0520     0.7750 hc         1 972       0.058700
     39 H30A         7.2110    -2.9010    -1.5310 hc         1 972       0.032200
     40 H30B         5.5450    -2.3460    -1.3950 hc         1 972       0.032200
     41 H30C         6.7480    -1.3390    -2.2020 hc         1 972       0.032200
     42 H40A         8.6710    -0.2620    -0.7700 hc         1 972       0.032200
     43 H40B         8.6880    -0.5430     0.9720 hc         1 972       0.032200
     44 H40C         9.0400    -1.8640    -0.1390 hc         1 972       0.032200
@<TRIPOS>BOND
     1     1     2 ar  
     2     1     7 ar  
     3     1     8 1   
     4     2     3 1   
     5     2     4 ar  
     6     4     5 ar  
     7     4    26 1   
     8     5     6 ar  
     9     5    11 2   
    10     6     7 ar  
    11     6    12 2   
    12     7    27 1   
    13     8     9 2   
    14     8    10 1   
    15     9    28 1   
    16     9    29 1   
    17    10    30 1   
    18    10    31 1   
    19    11    13 1   
    20    11    32 1   
    21    12    13 1   
    22    13    14 2   
    23    14    15 1   
    24    14    19 1   
    25    15    16 2   
    26    15    33 1   
    27    16    17 1   
    28    16    34 1   
    29    17    18 2   
    30    17    35 1   
    31    18    19 1   
    32    18    21 1   
    33    19    20 2   
    34    21    22 1   
    35    22    23 1   
    36    22    36 1   
    37    22    37 1   
    38    23    24 1   
    39    23    25 1   
    40    23    38 1   
    41    24    39 1   
    42    24    40 1   
    43    24    41 1   
    44    25    42 1   
    45    25    43 1   
    46    25    44 1   
@<TRIPOS>SUBSTRUCTURE
     1 972         1 TEMP              0 ****  ****    0 ROOT
