@<TRIPOS>MOLECULE
972
   44    46     1     0     0
SMALL
bcc


@<TRIPOS>ATOM
      1 H1          -4.1880    -0.7180     0.1510 ca         1 972      -0.214000
      2 H2          -4.4200     0.6040    -0.2660 ca         1 972      -0.057000
      3 HL2         -6.0210     1.1240    -0.6820 cl         1 972      -0.052000
      4 H3          -3.3890     1.5140    -0.4140 ca         1 972      -0.115000
      5 H4          -2.1120     1.0610    -0.1210 ca         1 972      -0.009000
      6 H5          -1.8430    -0.2600     0.2870 ca         1 972      -0.022000
      7 H6          -2.8920    -1.1570     0.4160 ca         1 972      -0.069000
      8 H7          -5.2770    -1.6960     0.3250 c2         1 972       0.363000
      9 H1          -6.2750    -1.4310     1.1290 n8         1 972      -0.320000
     10 H2          -5.1880    -2.8390    -0.3070 n8         1 972      -0.320000
     11 H3          -0.8960     1.6610    -0.1430 na         1 972      -0.233000
     12 H4          -0.5070    -0.4320     0.4980 n2         1 972      -0.165000
     13 H8           0.0520     0.7320     0.2340 cc         1 972       0.202000
     14 H9           1.4500     1.0880     0.3190 cd         1 972      -0.322000
     15 H11          1.8020     2.4490     0.4620 cd         1 972      -0.076000
     16 H12          3.1080     2.8490     0.5290 cc         1 972      -0.217000
     17 H13          4.1330     1.8810     0.4450 cc         1 972      -0.183000
     18 H14          3.8260     0.5530     0.3040 cd         1 972      -0.030000
     19 H15          2.4540     0.0650     0.2380 c          1 972       0.320000
     20 H6           2.2290    -1.1570     0.1010 o          1 972      -0.381000
     21 H5           4.7410    -0.4420     0.2110 os         1 972      -0.184000
     22 H10          6.1070    -0.0980     0.1910 c3         1 972      -0.011000
     23 H20          6.9360    -1.3510    -0.0420 c3         1 972      -0.101000
     24 H30          6.5850    -2.0230    -1.3650 c3         1 972      -0.203500
     25 H40          8.4150    -0.9830     0.0100 c3         1 972      -0.203500
     26 HC3         -3.5800     2.5230    -0.7510 ha         1 972       0.158000
     27 HC6         -2.7100    -2.1740     0.7400 ha         1 972       0.149000
     28 HH11        -6.2860    -0.5860     1.6770 ha         1 972       0.269750
     29 HH12        -7.0540    -2.0620     1.2500 ha         1 972       0.269750
     30 HH21        -5.8490    -3.5880    -0.1640 ha         1 972       0.269750
     31 HH22        -4.4600    -2.9930    -0.9870 ha         1 972       0.269750
     32 HN3         -0.7110     2.5980    -0.4630 ha         1 972       0.264000
     33 HC2          1.0280     3.2020     0.5590 ha         1 972       0.082000
     34 H5           3.3630     3.8920     0.6580 ha         1 972       0.110000
     35 HC4          5.1630     2.2120     0.5010 ha         1 972       0.112000
     36 H10A         6.3990     0.3770     1.1370 ha         1 972       0.060500
     37 H10B         6.3100     0.6280    -0.6100 ha         1 972       0.060500
     38 H20          6.7320    -2.0520     0.7750 ha         1 972       0.098000
     39 H30A         7.2110    -2.9010    -1.5310 ha         1 972       0.071500
     40 H30B         5.5450    -2.3460    -1.3950 ha         1 972       0.071500
     41 H30C         6.7480    -1.3390    -2.2020 ha         1 972       0.071500
     42 H40A         8.6710    -0.2620    -0.7700 ha         1 972       0.071500
     43 H40B         8.6880    -0.5430     0.9720 ha         1 972       0.071500
     44 H40C         9.0400    -1.8640    -0.1390 ha         1 972       0.071500
@<TRIPOS>BOND
     1     1     2 ar  
     2     1     7 ar  
     3     1     8 1   
     4     2     3 1   
     5     2     4 ar  
     6     4     5 ar  
     7     4    26 1   
     8     5     6 ar  
     9     5    11 2   
    10     6     7 ar  
    11     6    12 2   
    12     7    27 1   
    13     8     9 2   
    14     8    10 1   
    15     9    28 1   
    16     9    29 1   
    17    10    30 1   
    18    10    31 1   
    19    11    13 1   
    20    11    32 1   
    21    12    13 1   
    22    13    14 2   
    23    14    15 1   
    24    14    19 1   
    25    15    16 2   
    26    15    33 1   
    27    16    17 1   
    28    16    34 1   
    29    17    18 2   
    30    17    35 1   
    31    18    19 1   
    32    18    21 1   
    33    19    20 2   
    34    21    22 1   
    35    22    23 1   
    36    22    36 1   
    37    22    37 1   
    38    23    24 1   
    39    23    25 1   
    40    23    38 1   
    41    24    39 1   
    42    24    40 1   
    43    24    41 1   
    44    25    42 1   
    45    25    43 1   
    46    25    44 1   
@<TRIPOS>SUBSTRUCTURE
     1 972         1 TEMP              0 ****  ****    0 ROOT
