@<TRIPOS>MOLECULE
972
   44    46     1     0     0
SMALL
No Charge or Current Charge


@<TRIPOS>ATOM
      1 C1          -4.3140    -0.7220     0.1860 ca         1 972      -0.297900
      2 C2          -4.5390     0.6830     0.1630 ca         1 972       0.113000
      3 Cl2         -6.1740     1.3380     0.1320 cl         1 972      -0.222000
      4 C3          -3.4580     1.5880     0.1390 ca         1 972      -0.097000
      5 C4          -2.1620     1.0640     0.1380 ca         1 972      -0.009000
      6 C5          -1.9250    -0.3000     0.1570 ca         1 972      -0.022000
      7 C6          -2.9830    -1.2170     0.1800 ca         1 972      -0.051000
      8 C7          -5.4480    -1.6750     0.2150 ce         1 972       0.540400
      9 N1          -6.2570    -1.6850     1.3160 nv         1 972      -0.574700
     10 N2          -5.4170    -2.7500    -0.6290 nv         1 972      -0.558800
     11 N3          -0.9510     1.7280     0.1170 na         1 972      -0.305900
     12 N4          -0.5610    -0.5360     0.1500 nc         1 972      -0.305600
     13 C8          -0.0010     0.7170     0.1250 cc         1 972       0.315500
     14 C9           1.3550     1.0660     0.1090 cd         1 972      -0.341200
     15 C11          1.7050     2.4790     0.0830 cd         1 972      -0.126000
     16 C12          3.0370     2.8350     0.0670 cc         1 972      -0.267000
     17 C13          4.1020     1.8760     0.0740 cc         1 972      -0.233000
     18 C14          3.8200     0.5190     0.0980 cd         1 972      -0.005100
     19 C15          2.4120     0.0050     0.1180 c          1 972       0.597500
     20 O6           2.1710    -1.2000     0.1390 o          1 972      -0.620100
     21 O5           4.8520    -0.4050     0.1040 os         1 972      -0.323100
     22 C10          6.2400    -0.0200     0.0830 c3         1 972       0.162600
     23 C20          7.1080    -1.3030     0.0920 c3         1 972      -0.061700
     24 C30          6.8800    -2.1790    -1.1640 c3         1 972      -0.085600
     25 C40          8.6050    -0.9590     0.2630 c3         1 972      -0.085600
     26 HC3         -3.6300     2.6610     0.1170 ha         1 972       0.140000
     27 HC6         -2.7750    -2.2850     0.2030 ha         1 972       0.131000
     28 HH11        -6.2710    -0.8520     1.8890 hn         1 972       0.369750
     29 HH12        -7.0740    -2.2780     1.3190 hn         1 972       0.369750
     30 HH21        -6.2100    -3.3760    -0.6490 hn         1 972       0.369750
     31 HH22        -4.8370    -2.6860    -1.4540 hn         1 972       0.369750
     32 HN3         -0.7890     2.7240     0.0990 hn         1 972       0.364000
     33 HC2          0.9730     3.2800     0.0760 ha         1 972       0.132000
     34 H5           3.3060     3.8890     0.0480 ha         1 972       0.160000
     35 HC4          5.1160     2.2620     0.0600 ha         1 972       0.162000
     36 H10A         6.4800     0.5840     0.9680 h1         1 972       0.021200
     37 H10B         6.4680     0.5680    -0.8160 h1         1 972       0.021200
     38 H20          6.8110    -1.8940     0.9670 hc         1 972       0.058700
     39 H30A         7.4970    -3.0850    -1.1210 hc         1 972       0.032200
     40 H30B         5.8320    -2.4930    -1.2410 hc         1 972       0.032200
     41 H30C         7.1410    -1.6290    -2.0760 hc         1 972       0.032200
     42 H40A         8.9680    -0.3630    -0.5830 hc         1 972       0.032200
     43 H40B         8.7680    -0.3850     1.1830 hc         1 972       0.032200
     44 H40C         9.2090    -1.8730     0.3230 hc         1 972       0.032200
@<TRIPOS>BOND
     1     1     2 ar  
     2     1     7 ar  
     3     1     8 1   
     4     2     3 1   
     5     2     4 ar  
     6     4     5 ar  
     7     4    26 1   
     8     5     6 ar  
     9     5    11 2   
    10     6     7 ar  
    11     6    12 2   
    12     7    27 1   
    13     8     9 2   
    14     8    10 1   
    15     9    28 1   
    16     9    29 1   
    17    10    30 1   
    18    10    31 1   
    19    11    13 1   
    20    11    32 1   
    21    12    13 1   
    22    13    14 2   
    23    14    15 1   
    24    14    19 1   
    25    15    16 2   
    26    15    33 1   
    27    16    17 1   
    28    16    34 1   
    29    17    18 2   
    30    17    35 1   
    31    18    19 1   
    32    18    21 1   
    33    19    20 2   
    34    21    22 1   
    35    22    23 1   
    36    22    36 1   
    37    22    37 1   
    38    23    24 1   
    39    23    25 1   
    40    23    38 1   
    41    24    39 1   
    42    24    40 1   
    43    24    41 1   
    44    25    42 1   
    45    25    43 1   
    46    25    44 1   
@<TRIPOS>SUBSTRUCTURE
     1 972         1 TEMP              0 ****  ****    0 ROOT
