@<TRIPOS>MOLECULE
973
   38    41     1     0     0
SMALL
bcc


@<TRIPOS>ATOM
      1 C1           6.6880    -1.7070     0.7170 ca         1 973      -0.127000
      2 C2           5.4700    -2.4060     0.6040 ca         1 973      -0.116000
      3 C3           4.3210    -1.7520     0.2470 ca         1 973      -0.128000
      4 C4           4.3270    -0.3630    -0.0260 ca         1 973      -0.014000
      5 C5           5.5550     0.3400     0.1010 ca         1 973      -0.043000
      6 C6           6.7250    -0.3620     0.4740 ca         1 973      -0.109000
      7 C7           5.5900     1.7320    -0.1400 ca         1 973      -0.099000
      8 C8           4.4540     2.4040    -0.4970 ca         1 973      -0.131000
      9 C9           3.2360     1.7160    -0.6320 ca         1 973      -0.078000
     10 C10          3.1510     0.3590    -0.4060 ca         1 973      -0.058800
     11 C11          1.8940    -0.3590    -0.5980 ce         1 973      -0.073200
     12 C12          0.6700     0.0720    -0.2820 cd         1 973       0.029100
     13 C13         -0.6100    -0.5930    -0.4790 cd         1 973       0.159100
     14 C14         -1.5910     0.2040     0.0130 cc         1 973      -0.215400
     15 C15         -0.9310     1.3920     0.5300 c          1 973       0.743800
     16 O1          -1.3730     2.3800     1.0490 o          1 973      -0.534500
     17 O2           0.4180     1.2630     0.3310 os         1 973      -0.315200
     18 C16         -3.0330    -0.0230     0.0540 ca         1 973      -0.011800
     19 C17         -3.7890     0.3850     1.1540 ca         1 973      -0.098000
     20 C18         -5.1570     0.1690     1.2010 ca         1 973      -0.124500
     21 C19         -5.7820    -0.4620     0.1370 ca         1 973       0.032400
     22 C20         -5.0570    -0.8750    -0.9690 ca         1 973      -0.124500
     23 C21         -3.6900    -0.6530    -1.0060 ca         1 973      -0.098000
     24 CL1         -7.4910    -0.7350     0.1900 cl         1 973      -0.111400
     25 O3          -0.7820    -1.7760    -1.0290 oh         1 973      -0.449100
     26 H1           7.5880    -2.2360     1.0020 ha         1 973       0.134000
     27 H2           5.4400    -3.4680     0.8050 ha         1 973       0.132000
     28 H3           3.3990    -2.3160     0.1910 ha         1 973       0.124000
     29 H6           7.6540     0.1880     0.5670 ha         1 973       0.134000
     30 H7           6.5310     2.2590    -0.0410 ha         1 973       0.135000
     31 H8           4.4860     3.4680    -0.6880 ha         1 973       0.139000
     32 H9           2.3650     2.2680    -0.9530 ha         1 973       0.145000
     33 H11          1.9580    -1.3450    -1.0430 ha         1 973       0.131000
     34 H17         -3.3130     0.8620     1.9990 ha         1 973       0.143500
     35 H18         -5.7260     0.4890     2.0630 ha         1 973       0.147500
     36 H20         -5.5490    -1.3590    -1.8020 ha         1 973       0.147500
     37 H21         -3.1410    -0.9650    -1.8840 ha         1 973       0.143500
     38 HO3          0.0460    -2.1830    -1.3100 ho         1 973       0.443000
@<TRIPOS>BOND
     1     1     2 ar  
     2     1     6 ar  
     3     1    26 1   
     4     2     3 ar  
     5     2    27 1   
     6     3     4 ar  
     7     3    28 1   
     8     4     5 ar  
     9     4    10 ar  
    10     5     6 ar  
    11     5     7 ar  
    12     6    29 1   
    13     7     8 ar  
    14     7    30 1   
    15     8     9 ar  
    16     8    31 1   
    17     9    10 ar  
    18     9    32 1   
    19    10    11 1   
    20    11    12 2   
    21    11    33 1   
    22    12    13 1   
    23    12    17 1   
    24    13    14 2   
    25    13    25 1   
    26    14    15 1   
    27    14    18 1   
    28    15    16 2   
    29    15    17 1   
    30    18    19 ar  
    31    18    23 ar  
    32    19    20 ar  
    33    19    34 1   
    34    20    21 ar  
    35    20    35 1   
    36    21    22 ar  
    37    21    24 1   
    38    22    23 ar  
    39    22    36 1   
    40    23    37 1   
    41    25    38 1   
@<TRIPOS>SUBSTRUCTURE
     1 973         1 TEMP              0 ****  ****    0 ROOT
