@<TRIPOS>MOLECULE
973
   38    41     1     0     0
SMALL
No Charge or Current Charge


@<TRIPOS>ATOM
      1 C1           6.6260    -1.6980     0.9140 ca         1 973      -0.109000
      2 C2           5.4090    -2.3860     0.7980 ca         1 973      -0.098000
      3 C3           4.2630    -1.7210     0.3290 ca         1 973      -0.110000
      4 C4           4.3220    -0.3550    -0.0350 ca         1 973      -0.014000
      5 C5           5.5540     0.3340     0.0960 ca         1 973      -0.043000
      6 C6           6.6980    -0.3400     0.5660 ca         1 973      -0.091000
      7 C7           5.6430     1.6970    -0.2390 ca         1 973      -0.081000
      8 C8           4.5110     2.3810    -0.7040 ca         1 973      -0.113000
      9 C9           3.2890     1.7060    -0.8400 ca         1 973      -0.060000
     10 C10          3.1790     0.3400    -0.5100 ca         1 973      -0.058800
     11 C11          1.8630    -0.3430    -0.6990 ce         1 973      -0.123200
     12 C12          0.6090     0.0950    -0.3290 cd         1 973       0.029100
     13 C13         -0.6550    -0.5570    -0.5220 cd         1 973       0.159100
     14 C14         -1.5720     0.2810     0.0380 cc         1 973      -0.215400
     15 C15         -0.8620     1.4410     0.5800 c          1 973       0.668300
     16 O1          -1.3580     2.4000     1.1540 o          1 973      -0.459000
     17 O2           0.4800     1.2950     0.3280 os         1 973      -0.315200
     18 C16         -3.0070    -0.0080     0.0770 ca         1 973      -0.011800
     19 C17         -3.7290     0.1830     1.2720 ca         1 973      -0.080000
     20 C18         -5.1100    -0.0820     1.3200 ca         1 973      -0.106500
     21 C19         -5.7780    -0.5340     0.1720 ca         1 973       0.124000
     22 C20         -5.0700    -0.7200    -1.0250 ca         1 973      -0.106500
     23 C21         -3.6890    -0.4560    -1.0730 ca         1 973      -0.080000
     24 Cl1         -7.5050    -0.8640     0.2320 cl         1 973      -0.203000
     25 O3          -0.8760    -1.7570    -1.1080 oh         1 973      -0.488100
     26 H1           7.5120    -2.2140     1.2780 ha         1 973       0.116000
     27 H2           5.3520    -3.4360     1.0740 ha         1 973       0.114000
     28 H3           3.3350    -2.2810     0.2640 ha         1 973       0.106000
     29 H6           7.6440     0.1890     0.6640 ha         1 973       0.116000
     30 H7           6.5880     2.2270    -0.1390 ha         1 973       0.117000
     31 H8           4.5810     3.4350    -0.9650 ha         1 973       0.121000
     32 H9           2.4230     2.2460    -1.2160 ha         1 973       0.127000
     33 H11          1.9130    -1.3080    -1.2000 ha         1 973       0.181000
     34 H17         -3.2200     0.5300     2.1680 ha         1 973       0.125500
     35 H18         -5.6600     0.0640     2.2460 ha         1 973       0.129500
     36 H20         -5.5890    -1.0660    -1.9150 ha         1 973       0.129500
     37 H21         -3.1520    -0.5930    -2.0090 ha         1 973       0.125500
     38 HO3         -0.0120    -2.1140    -1.4000 ho         1 973       0.482000
@<TRIPOS>BOND
     1     1     2 ar  
     2     1     6 ar  
     3     1    26 1   
     4     2     3 ar  
     5     2    27 1   
     6     3     4 ar  
     7     3    28 1   
     8     4     5 ar  
     9     4    10 ar  
    10     5     6 ar  
    11     5     7 ar  
    12     6    29 1   
    13     7     8 ar  
    14     7    30 1   
    15     8     9 ar  
    16     8    31 1   
    17     9    10 ar  
    18     9    32 1   
    19    10    11 1   
    20    11    12 2   
    21    11    33 1   
    22    12    13 1   
    23    12    17 1   
    24    13    14 2   
    25    13    25 1   
    26    14    15 1   
    27    14    18 1   
    28    15    16 2   
    29    15    17 1   
    30    18    19 ar  
    31    18    23 ar  
    32    19    20 ar  
    33    19    34 1   
    34    20    21 ar  
    35    20    35 1   
    36    21    22 ar  
    37    21    24 1   
    38    22    23 ar  
    39    22    36 1   
    40    23    37 1   
    41    25    38 1   
@<TRIPOS>SUBSTRUCTURE
     1 973         1 TEMP              0 ****  ****    0 ROOT
