@<TRIPOS>MOLECULE
974
   67    71     1     0     0
SMALL
abcg2


@<TRIPOS>ATOM
      1 O1          11.3750    36.4140    12.0010 os         1 974      -0.181200
      2 C11         12.3290    36.0710    11.0560 ca         1 974      -0.005900
      3 C12         11.9420    35.8910     9.7470 ca         1 974      -0.046000
      4 C13         12.8720    35.4640     8.8030 ca         1 974      -0.220900
      5 C14         14.1840    35.2390     9.2140 ca         1 974      -0.020000
      6 C15         14.5690    35.4340    10.5300 ca         1 974      -0.199000
      7 C16         13.6420    35.8470    11.4790 ca         1 974       0.152100
      8 O11         13.9140    36.0580    12.7700 oh         1 974      -0.513100
      9 C17         12.4540    35.2810     7.3860 ce         1 974       0.664800
     10 N11         11.5670    35.9840     6.7930 n2         1 974      -0.828100
     11 N12         13.1320    34.3080     6.7130 nv         1 974      -1.028200
     12 C1          10.7620    37.7880    13.7740 ca         1 974       0.039000
     13 F1          10.0180    36.7730    14.2110 f          1 974      -0.115000
     14 C2          10.7570    39.0280    14.4520 ca         1 974       0.394000
     15 C3          11.5380    40.0340    13.8190 ca         1 974       0.020000
     16 F2          11.7270    41.2070    14.4210 f          1 974      -0.128000
     17 C4          12.1880    39.8230    12.6400 ca         1 974       0.200800
     18 N5          12.1330    38.6070    12.0560 na         1 974      -0.211700
     19 C6          11.4560    37.5870    12.6100 ca         1 974       0.180100
     20 N31         10.1020    39.2330    15.5960 nh         1 974      -0.702400
     21 C32          9.9590    38.2060    16.6340 c6         1 974       0.207800
     22 C33         10.5680    38.7060    17.9420 c6         1 974      -0.217700
     23 C34          9.9650    40.0440    18.3590 c6         1 974      -0.065400
     24 C35         10.0750    41.0710    17.2390 c6         1 974      -0.098400
     25 C36          9.4910    40.5130    15.9550 c6         1 974       0.202800
     26 C37         10.4570    37.6440    19.0600 c          1 974       0.726000
     27 O31         10.0880    36.5000    18.7290 o          1 974      -0.701000
     28 O32         10.7660    38.0220    20.2060 o          1 974      -0.701000
     29 C21         12.5290    41.9910    11.8090 ca         1 974       0.091100
     30 C22         11.2220    42.2410    11.4250 ca         1 974      -0.145000
     31 C23         10.8560    43.5550    11.1760 ca         1 974      -0.084000
     32 C24         11.7780    44.5850    11.2880 ca         1 974      -0.104000
     33 C25         13.0980    44.3110    11.6450 ca         1 974      -0.079500
     34 C26         13.4680    42.9950    11.9230 ca         1 974      -0.062000
     35 C27         14.1120    45.3570    11.7910 cc         1 974       0.429000
     36 N21         14.2200    46.4630    11.0110 na         1 974      -0.150500
     37 C30         13.4330    46.8320     9.8510 c3         1 974       0.053900
     38 N22         15.0580    45.3260    12.7040 nd         1 974      -0.654000
     39 C28         15.2920    47.1710    11.4700 cc         1 974      -0.218000
     40 C29         15.7950    46.4530    12.5170 cd         1 974       0.237900
     41 H12         10.9070    36.0590     9.4770 ha         1 974       0.146000
     42 H14         14.9310    34.9220     8.4980 ha         1 974       0.141000
     43 H15         15.5980    35.2600    10.8230 ha         1 974       0.136000
     44 HO11        14.8500    35.9130    12.9540 ho         1 974       0.492000
     45 HN11        11.2390    36.7350     7.3880 hn         1 974       0.383400
     46 H121        12.7890    34.0890     5.7920 hn         1 974       0.474500
     47 H122        13.4580    33.5090     7.2310 hn         1 974       0.474500
     48 HN5         12.5940    38.4880    11.1560 hn         1 974       0.382000
     49 H321         8.8970    37.9770    16.7640 h1         1 974       0.088200
     50 H322        10.4670    37.2970    16.3360 h1         1 974       0.088200
     51 H33         11.6390    38.8660    17.7570 hc         1 974       0.041700
     52 H341         8.9090    39.9040    18.6160 hc         1 974       0.065700
     53 H342        10.4610    40.4060    19.2590 hc         1 974       0.065700
     54 H351         9.5400    41.9860    17.5000 hc         1 974       0.052200
     55 H352        11.1210    41.3450    17.0800 hc         1 974       0.052200
     56 H361         9.5510    41.2140    15.1290 h1         1 974       0.059200
     57 H362         8.4240    40.3070    16.1000 h1         1 974       0.059200
     58 H22         10.4980    41.4440    11.3120 ha         1 974       0.123000
     59 H23          9.8360    43.7780    10.8940 ha         1 974       0.127000
     60 H24         11.4490    45.6000    11.1190 ha         1 974       0.126000
     61 H26         14.4830    42.7610    12.2160 ha         1 974       0.160000
     62 H301        14.0360    47.4670     9.2070 h1         1 974       0.057033
     63 H302        13.1510    45.9450     9.2880 h1         1 974       0.057033
     64 H303        12.5360    47.3780    10.1350 h1         1 974       0.057033
     65 H28         15.6000    48.0960    11.0140 h4         1 974       0.161000
     66 H29         16.6450    46.6920    13.1380 h4         1 974       0.046100
     67 O2          12.9800    40.6970    12.0330 os         1 974      -0.236200
@<TRIPOS>BOND
     1     1     2 1   
     2     1    19 1   
     3     2     3 ar  
     4     2     7 ar  
     5     3     4 ar  
     6     3    41 1   
     7     4     5 ar  
     8     4     9 1   
     9     5     6 ar  
    10     5    42 1   
    11     6     7 ar  
    12     6    43 1   
    13     7     8 1   
    14     8    44 1   
    15     9    10 2   
    16     9    11 1   
    17    10    45 1   
    18    11    46 1   
    19    11    47 1   
    20    12    13 1   
    21    12    14 ar  
    22    12    19 ar  
    23    14    15 ar  
    24    14    20 1   
    25    15    16 1   
    26    15    17 ar  
    27    17    18 2   
    28    17    67 1   
    29    18    19 1   
    30    18    48 1   
    31    20    21 1   
    32    20    25 1   
    33    21    22 1   
    34    21    49 1   
    35    21    50 1   
    36    22    23 1   
    37    22    26 1   
    38    22    51 1   
    39    23    24 1   
    40    23    52 1   
    41    23    53 1   
    42    24    25 1   
    43    24    54 1   
    44    24    55 1   
    45    25    56 1   
    46    25    57 1   
    47    26    27 1   
    48    26    28 1   
    49    29    30 ar  
    50    29    34 ar  
    51    29    67 1   
    52    30    31 ar  
    53    30    58 1   
    54    31    32 ar  
    55    31    59 1   
    56    32    33 ar  
    57    32    60 1   
    58    33    34 ar  
    59    33    35 1   
    60    34    61 1   
    61    35    36 1   
    62    35    38 2   
    63    36    37 1   
    64    36    39 1   
    65    37    62 1   
    66    37    63 1   
    67    37    64 1   
    68    38    40 1   
    69    39    40 2   
    70    39    65 1   
    71    40    66 1   
@<TRIPOS>SUBSTRUCTURE
     1 974         1 TEMP              0 ****  ****    0 ROOT
