@<TRIPOS>MOLECULE
974
   67    71     1     0     0
SMALL
No Charge or Current Charge


@<TRIPOS>ATOM
      1 O1          11.3640    36.4630    11.8430 os         1 974      -0.181200
      2 C11         12.3080    36.0140    10.9420 ca         1 974      -0.005900
      3 C12         11.9100    35.7840     9.6130 ca         1 974      -0.046000
      4 C13         12.8320    35.3010     8.6550 ca         1 974      -0.220900
      5 C14         14.1710    35.0820     9.0540 ca         1 974      -0.020000
      6 C15         14.5670    35.3000    10.3860 ca         1 974      -0.199000
      7 C16         13.6410    35.7560    11.3360 ca         1 974       0.152100
      8 O11         14.0430    35.9460    12.6290 oh         1 974      -0.513100
      9 C17         12.4250    35.1020     7.2350 ce         1 974       0.664800
     10 N11         11.4600    35.7190     6.6930 n2         1 974      -0.828100
     11 N12         12.9950    34.0910     6.5600 nv         1 974      -1.028200
     12 C1          10.8510    37.7980    13.8030 ca         1 974       0.039000
     13 F1          10.0840    36.7880    14.2840 f          1 974      -0.115000
     14 C2          10.9850    39.0160    14.5130 ca         1 974       0.394000
     15 C3          11.7630    40.0450    13.9320 ca         1 974       0.020000
     16 F2          11.9440    41.2210    14.5860 f          1 974      -0.128000
     17 C4          12.3720    39.8380    12.6770 ca         1 974       0.200800
     18 N5          12.2730    38.6380    11.9910 na         1 974      -0.211700
     19 C6          11.5060    37.6280    12.5690 ca         1 974       0.180100
     20 N31         10.3530    39.2280    15.7710 nh         1 974      -0.702400
     21 C32         10.3850    38.1970    16.8460 c6         1 974       0.207800
     22 C33         10.4620    38.8730    18.2330 c6         1 974      -0.217700
     23 C34          9.3020    39.8910    18.4230 c6         1 974      -0.065400
     24 C35          9.2960    40.9170    17.2650 c6         1 974      -0.098400
     25 C36          9.2430    40.2100    15.8910 c6         1 974       0.202800
     26 C37         10.5050    37.8100    19.3440 c          1 974       0.726000
     27 O31          9.5480    37.0590    19.4620 o          1 974      -0.701000
     28 O32         11.5000    37.7640    20.0520 o          1 974      -0.701000
     29 C21         12.7250    42.0820    11.8530 ca         1 974       0.091100
     30 C22         11.3660    42.3830    11.6450 ca         1 974      -0.145000
     31 C23         10.9700    43.7170    11.4590 ca         1 974      -0.084000
     32 C24         11.9280    44.7460    11.4590 ca         1 974      -0.104000
     33 C25         13.3030    44.4530    11.6150 ca         1 974      -0.079500
     34 C26         13.6810    43.1110    11.8400 ca         1 974      -0.062000
     35 C27         14.3250    45.5130    11.6630 cc         1 974       0.429000
     36 N21         14.3230    46.6860    10.9160 na         1 974      -0.150500
     37 C30         13.3770    47.0860     9.8610 c3         1 974       0.053900
     38 N22         15.4120    45.4480    12.4190 nd         1 974      -0.654000
     39 C28         15.4500    47.3960    11.2760 cc         1 974      -0.218000
     40 C29         16.1050    46.6170    12.1920 cd         1 974       0.237900
     41 H12         10.8730    35.9690     9.3400 ha         1 974       0.146000
     42 H14         14.9140    34.7470     8.3320 ha         1 974       0.141000
     43 H15         15.6000    35.1120    10.6680 ha         1 974       0.136000
     44 HO11        14.9790    35.6660    12.7110 ho         1 974       0.492000
     45 HN11        11.1980    36.5000     7.3070 hn         1 974       0.383400
     46 H121        12.4640    33.8000     5.7490 hn         1 974       0.474500
     47 H122        13.3690    33.3420     7.1300 hn         1 974       0.474500
     48 HN5         12.7470    38.5010    11.1090 hn         1 974       0.382000
     49 H321         9.4870    37.5620    16.7910 h1         1 974       0.088200
     50 H322        11.2580    37.5370    16.7230 h1         1 974       0.088200
     51 H33         11.4080    39.4300    18.2830 hc         1 974       0.041700
     52 H341         8.3370    39.3650    18.4550 hc         1 974       0.065700
     53 H342         9.4080    40.4110    19.3850 hc         1 974       0.065700
     54 H351         8.4380    41.5960    17.3670 hc         1 974       0.052200
     55 H352        10.1980    41.5410    17.3180 hc         1 974       0.052200
     56 H361         9.3030    40.9680    15.0970 h1         1 974       0.059200
     57 H362         8.2760    39.6970    15.7800 h1         1 974       0.059200
     58 H22         10.6170    41.5960    11.6350 ha         1 974       0.123000
     59 H23          9.9160    43.9560    11.3250 ha         1 974       0.127000
     60 H24         11.5870    45.7720    11.3540 ha         1 974       0.126000
     61 H26         14.7270    42.8580    11.9990 ha         1 974       0.160000
     62 H301        13.8820    47.7440     9.1430 h1         1 974       0.057033
     63 H302        13.0110    46.2000     9.3280 h1         1 974       0.057033
     64 H303        12.5330    47.6260    10.3060 h1         1 974       0.057033
     65 H28         15.7090    48.3600    10.8560 h4         1 974       0.161000
     66 H29         17.0410    46.8310    12.6960 h4         1 974       0.046100
     67 O2          13.1480    40.7860    12.0490 os         1 974      -0.236200
@<TRIPOS>BOND
     1     1     2 1   
     2     1    19 1   
     3     2     3 ar  
     4     2     7 ar  
     5     3     4 ar  
     6     3    41 1   
     7     4     5 ar  
     8     4     9 1   
     9     5     6 ar  
    10     5    42 1   
    11     6     7 ar  
    12     6    43 1   
    13     7     8 1   
    14     8    44 1   
    15     9    10 2   
    16     9    11 1   
    17    10    45 1   
    18    11    46 1   
    19    11    47 1   
    20    12    13 1   
    21    12    14 ar  
    22    12    19 ar  
    23    14    15 ar  
    24    14    20 1   
    25    15    16 1   
    26    15    17 ar  
    27    17    18 2   
    28    17    67 1   
    29    18    19 1   
    30    18    48 1   
    31    20    21 1   
    32    20    25 1   
    33    21    22 1   
    34    21    49 1   
    35    21    50 1   
    36    22    23 1   
    37    22    26 1   
    38    22    51 1   
    39    23    24 1   
    40    23    52 1   
    41    23    53 1   
    42    24    25 1   
    43    24    54 1   
    44    24    55 1   
    45    25    56 1   
    46    25    57 1   
    47    26    27 1   
    48    26    28 1   
    49    29    30 ar  
    50    29    34 ar  
    51    29    67 1   
    52    30    31 ar  
    53    30    58 1   
    54    31    32 ar  
    55    31    59 1   
    56    32    33 ar  
    57    32    60 1   
    58    33    34 ar  
    59    33    35 1   
    60    34    61 1   
    61    35    36 1   
    62    35    38 2   
    63    36    37 1   
    64    36    39 1   
    65    37    62 1   
    66    37    63 1   
    67    37    64 1   
    68    38    40 1   
    69    39    40 2   
    70    39    65 1   
    71    40    66 1   
@<TRIPOS>SUBSTRUCTURE
     1 974         1 TEMP              0 ****  ****    0 ROOT
