@<TRIPOS>MOLECULE
975
   21    21     1     0     0
SMALL
bcc


@<TRIPOS>ATOM
      1 CAF         -0.1350     0.8310     0.1500 ca         1 975      -0.175000
      2 CAJ         -1.4710     0.6610    -0.1720 ca         1 975       0.045100
      3 OAC         -2.3180     1.6830    -0.4390 oh         1 975      -0.519100
      4 CAI         -2.0180    -0.6270    -0.2320 ca         1 975       0.121100
      5 OAB         -3.3190    -0.8340    -0.5380 oh         1 975      -0.496100
      6 CAD         -1.2030    -1.7140     0.0360 ca         1 975      -0.138000
      7 CAE          0.1380    -1.5330     0.3560 ca         1 975      -0.118000
      8 CAK          0.6910    -0.2610     0.4160 ca         1 975      -0.082300
      9 CAH          2.1500    -0.0530     0.7110 c3         1 975      -0.032100
     10 CAG          2.9470     0.1380    -0.5720 c3         1 975       0.140400
     11 OAA          4.3040     0.3280    -0.2390 oh         1 975      -0.601800
     12 H1           0.2710     1.8370     0.1990 ha         1 975       0.130000
     13 H2          -1.8510     2.5250    -0.4300 ho         1 975       0.435000
     14 H3          -3.7530     0.0020    -0.7430 ho         1 975       0.442000
     15 H4          -1.6230    -2.7120    -0.0090 ha         1 975       0.149000
     16 H5           0.7540    -2.4010     0.5590 ha         1 975       0.136000
     17 H6           2.2850     0.8230     1.3510 hc         1 975       0.059700
     18 H7           2.5470    -0.9130     1.2570 hc         1 975       0.059700
     19 H8           2.8080    -0.7420    -1.2140 h1         1 975       0.019700
     20 H9           2.5420     0.9980    -1.1200 h1         1 975       0.019700
     21 H10          4.7930     0.4890    -1.0510 ho         1 975       0.405000
@<TRIPOS>BOND
     1     1     2 ar  
     2     1     8 ar  
     3     1    12 1   
     4     2     3 1   
     5     2     4 ar  
     6     3    13 1   
     7     4     5 1   
     8     4     6 ar  
     9     5    14 1   
    10     6     7 ar  
    11     6    15 1   
    12     7     8 ar  
    13     7    16 1   
    14     8     9 1   
    15     9    10 1   
    16     9    17 1   
    17     9    18 1   
    18    10    11 1   
    19    10    19 1   
    20    10    20 1   
    21    11    21 1   
@<TRIPOS>SUBSTRUCTURE
     1 975         1 TEMP              0 ****  ****    0 ROOT
