@<TRIPOS>MOLECULE
975
   21    21     1     0     0
SMALL
No Charge or Current Charge


@<TRIPOS>ATOM
      1 CAF         -0.2060     0.8820     0.1530 ca         1 975      -0.157000
      2 CAJ         -1.5600     0.6570    -0.1550 ca         1 975       0.045100
      3 OAC         -2.4020     1.7170    -0.3670 oh         1 975      -0.558100
      4 CAI         -2.0500    -0.6620    -0.2450 ca         1 975       0.121100
      5 OAB         -3.3640    -0.8710    -0.5440 oh         1 975      -0.535100
      6 CAD         -1.1900    -1.7500    -0.0300 ca         1 975      -0.120000
      7 CAE          0.1630    -1.5230     0.2780 ca         1 975      -0.100000
      8 CAK          0.6610    -0.2080     0.3720 ca         1 975      -0.082300
      9 CAH          2.1290     0.0340     0.7000 c3         1 975      -0.032100
     10 CAG          3.0080     0.0730    -0.5660 c3         1 975       0.163600
     11 OAA          4.3760     0.3000    -0.2060 oh         1 975      -0.664000
     12 H1           0.1770     1.8980     0.2210 ha         1 975       0.112000
     13 H2          -1.8930     2.5520    -0.2630 ho         1 975       0.474000
     14 H3          -3.7600     0.0240    -0.6500 ho         1 975       0.481000
     15 H4          -1.5710    -2.7660    -0.1010 ha         1 975       0.131000
     16 H5           0.8250    -2.3710     0.4420 ha         1 975       0.118000
     17 H6           2.2440     0.9790     1.2450 hc         1 975       0.059700
     18 H7           2.5000    -0.7530     1.3690 hc         1 975       0.059700
     19 H8           2.9090    -0.8790    -1.1030 h1         1 975       0.019700
     20 H9           2.6510     0.8730    -1.2280 h1         1 975       0.019700
     21 H10          4.8920     0.3170    -1.0430 ho         1 975       0.444000
@<TRIPOS>BOND
     1     1     2 ar  
     2     1     8 ar  
     3     1    12 1   
     4     2     3 1   
     5     2     4 ar  
     6     3    13 1   
     7     4     5 1   
     8     4     6 ar  
     9     5    14 1   
    10     6     7 ar  
    11     6    15 1   
    12     7     8 ar  
    13     7    16 1   
    14     8     9 1   
    15     9    10 1   
    16     9    17 1   
    17     9    18 1   
    18    10    11 1   
    19    10    19 1   
    20    10    20 1   
    21    11    21 1   
@<TRIPOS>SUBSTRUCTURE
     1 975         1 TEMP              0 ****  ****    0 ROOT
