@<TRIPOS>MOLECULE
976
   44    46     1     0     0
SMALL
No Charge or Current Charge


@<TRIPOS>ATOM
      1 N           37.5280    33.9930     5.7840 nb         1 976      -0.705000
      2 Cl          39.7750    28.5140     5.8930 cl         1 976      -0.249000
      3 C1          39.0960    30.1360     5.8570 ca         1 976       0.107000
      4 O1          33.0000    33.6580     8.8190 o          1 976      -0.723000
      5 C2          39.9220    31.2320     5.5820 ca         1 976      -0.122000
      6 O2          33.7150    35.4490     7.8890 o          1 976      -0.723000
      7 C3          39.3730    32.5240     5.5610 ca         1 976      -0.075000
      8 C4          38.0030    32.7370     5.8080 ca         1 976       0.262000
      9 C5          37.1650    31.6300     6.0780 ca         1 976      -0.060000
     10 C6          37.7290    30.3300     6.1050 ca         1 976      -0.078000
     11 C7          36.2160    34.2270     6.0190 ca         1 976       0.408300
     12 C8          35.2700    33.1850     6.3050 ca         1 976      -0.001300
     13 C9          35.7780    31.8400     6.3260 cp         1 976      -0.039000
     14 C10         34.9040    30.6570     6.5930 cp         1 976      -0.023000
     15 C11         33.7510    33.4430     6.5680 c3         1 976      -0.174400
     16 C12         33.4680    34.2550     7.8610 c          1 976       0.717000
     17 C13         32.9350    33.9240     5.3280 c3         1 976      -0.056400
     18 C14         32.8010    32.8760     4.1950 c3         1 976      -0.076400
     19 C15         31.7910    31.7450     4.4900 c3         1 976      -0.086100
     20 C16         35.9310    35.7240     5.9590 c3         1 976      -0.154400
     21 C17         34.4760    30.3490     7.9060 ca         1 976      -0.090000
     22 C18         33.6670    29.2270     8.1560 ca         1 976      -0.123000
     23 C19         33.2790    28.3910     7.0950 ca         1 976      -0.122000
     24 C20         33.7010    28.6760     5.7860 ca         1 976      -0.123000
     25 C21         34.5090    29.8000     5.5380 ca         1 976      -0.090000
     26 H2          40.9820    31.0840     5.3900 ha         1 976       0.116000
     27 H3          40.0170    33.3740     5.3520 ha         1 976       0.123000
     28 H6          37.1230    29.4550     6.3210 ha         1 976       0.132000
     29 H11         33.3010    32.4800     6.8100 hc         1 976       0.052700
     30 H13         31.9270    34.2080     5.6550 hc         1 976       0.048200
     31 H13A        33.3680    34.8270     4.8950 hc         1 976       0.048200
     32 H14         32.4750    33.3900     3.2820 hc         1 976       0.021200
     33 H14A        33.7830    32.4430     3.9720 hc         1 976       0.021200
     34 H15         31.7570    31.0390     3.6520 hc         1 976       0.026367
     35 H15A        32.0630    31.1870     5.3920 hc         1 976       0.026367
     36 H15B        30.7840    32.1550     4.6320 hc         1 976       0.026367
     37 H16         36.5710    36.2210     5.2210 hc         1 976       0.063367
     38 H16A        34.9080    35.9740     5.6840 hc         1 976       0.063367
     39 H16B        36.1380    36.1890     6.9290 hc         1 976       0.063367
     40 H17         34.7740    30.9910     8.7320 ha         1 976       0.131000
     41 H18         33.3430    29.0050     9.1700 ha         1 976       0.104000
     42 H19         32.6530    27.5230     7.2880 ha         1 976       0.098000
     43 H20         33.4030    28.0290     4.9640 ha         1 976       0.104000
     44 H21         34.8330    30.0150     4.5220 ha         1 976       0.131000
@<TRIPOS>BOND
     1     1     8 ar  
     2     1    11 ar  
     3     2     3 1   
     4     3     5 ar  
     5     3    10 ar  
     6     4    16 1   
     7     5     7 ar  
     8     5    26 1   
     9     6    16 1   
    10     7     8 ar  
    11     7    27 1   
    12     8     9 ar  
    13     9    10 ar  
    14     9    13 ar  
    15    10    28 1   
    16    11    12 ar  
    17    11    20 1   
    18    12    13 ar  
    19    12    15 1   
    20    13    14 1   
    21    14    21 ar  
    22    14    25 ar  
    23    15    16 1   
    24    15    17 1   
    25    15    29 1   
    26    17    18 1   
    27    17    30 1   
    28    17    31 1   
    29    18    19 1   
    30    18    32 1   
    31    18    33 1   
    32    19    34 1   
    33    19    35 1   
    34    19    36 1   
    35    20    37 1   
    36    20    38 1   
    37    20    39 1   
    38    21    22 ar  
    39    21    40 1   
    40    22    23 ar  
    41    22    41 1   
    42    23    24 ar  
    43    23    42 1   
    44    24    25 ar  
    45    24    43 1   
    46    25    44 1   
@<TRIPOS>SUBSTRUCTURE
     1 976         1 TEMP              0 ****  ****    0 ROOT
