@<TRIPOS>MOLECULE
976
   44    46     1     0     0
SMALL
abcg2


@<TRIPOS>ATOM
      1 N           37.4990    33.9880     5.8490 nb         1 976      -0.705000
      2 CL          39.7490    28.5480     5.7510 cl         1 976      -0.249000
      3 C1          39.0440    30.1530     5.7610 ca         1 976       0.107000
      4 O1          34.2250    34.1340     8.7500 o          1 976      -0.723000
      5 C2          39.8770    31.2520     5.4830 ca         1 976      -0.122000
      6 O2          32.6240    35.2260     7.6310 o          1 976      -0.723000
      7 C3          39.3390    32.5130     5.5060 ca         1 976      -0.075000
      8 C4          37.9700    32.7150     5.7980 ca         1 976       0.262000
      9 C5          37.1370    31.5950     6.0490 ca         1 976      -0.060000
     10 C6          37.7110    30.3010     6.0410 ca         1 976      -0.078000
     11 C7          36.2280    34.2000     6.1150 ca         1 976       0.408300
     12 C8          35.2830    33.1370     6.3230 ca         1 976      -0.001300
     13 C9          35.7530    31.8370     6.3070 cp         1 976      -0.039000
     14 C10         34.8660    30.6710     6.5650 cp         1 976      -0.023000
     15 C11         33.8120    33.4470     6.4990 c3         1 976      -0.174400
     16 C12         33.5350    34.3700     7.7240 c          1 976       0.717000
     17 C13         33.1530    33.8830     5.1780 c3         1 976      -0.056400
     18 C14         32.9030    32.7370     4.1930 c3         1 976      -0.076400
     19 C15         31.8010    31.7760     4.6350 c3         1 976      -0.086100
     20 C16         35.8330    35.6460     6.2460 c3         1 976      -0.154400
     21 C17         34.3450    30.4480     7.8410 ca         1 976      -0.090000
     22 C18         33.5280    29.3510     8.0900 ca         1 976      -0.123000
     23 C19         33.2220    28.4610     7.0640 ca         1 976      -0.122000
     24 C20         33.7420    28.6730     5.7910 ca         1 976      -0.123000
     25 C21         34.5620    29.7680     5.5450 ca         1 976      -0.090000
     26 H2          40.9230    31.0950     5.2620 ha         1 976       0.116000
     27 H3          39.9550    33.3810     5.3090 ha         1 976       0.123000
     28 H6          37.1020    29.4360     6.2530 ha         1 976       0.132000
     29 H11         33.3240    32.5200     6.7980 hc         1 976       0.052700
     30 H13         32.2050    34.3640     5.4250 hc         1 976       0.048200
     31 H13A        33.7640    34.6420     4.6860 hc         1 976       0.048200
     32 H14         32.6300    33.1670     3.2240 hc         1 976       0.021200
     33 H14A        33.8320    32.1830     4.0260 hc         1 976       0.021200
     34 H15         31.6610    30.9740     3.9080 hc         1 976       0.026367
     35 H15A        32.0330    31.3070     5.5930 hc         1 976       0.026367
     36 H15B        30.8500    32.3050     4.7430 hc         1 976       0.026367
     37 H16         36.6430    36.2730     5.8810 hc         1 976       0.063367
     38 H16A        34.9200    35.8880     5.7060 hc         1 976       0.063367
     39 H16B        35.6520    35.8820     7.2970 hc         1 976       0.063367
     40 H17         34.5760    31.1450     8.6370 ha         1 976       0.131000
     41 H18         33.1300    29.1920     9.0840 ha         1 976       0.104000
     42 H19         32.5820    27.6090     7.2560 ha         1 976       0.098000
     43 H20         33.5060    27.9880     4.9870 ha         1 976       0.104000
     44 H21         34.9600    29.9320     4.5530 ha         1 976       0.131000
@<TRIPOS>BOND
     1     1     8 ar  
     2     1    11 ar  
     3     2     3 1   
     4     3     5 ar  
     5     3    10 ar  
     6     4    16 1   
     7     5     7 ar  
     8     5    26 1   
     9     6    16 1   
    10     7     8 ar  
    11     7    27 1   
    12     8     9 ar  
    13     9    10 ar  
    14     9    13 ar  
    15    10    28 1   
    16    11    12 ar  
    17    11    20 1   
    18    12    13 ar  
    19    12    15 1   
    20    13    14 1   
    21    14    21 ar  
    22    14    25 ar  
    23    15    16 1   
    24    15    17 1   
    25    15    29 1   
    26    17    18 1   
    27    17    30 1   
    28    17    31 1   
    29    18    19 1   
    30    18    32 1   
    31    18    33 1   
    32    19    34 1   
    33    19    35 1   
    34    19    36 1   
    35    20    37 1   
    36    20    38 1   
    37    20    39 1   
    38    21    22 ar  
    39    21    40 1   
    40    22    23 ar  
    41    22    41 1   
    42    23    24 ar  
    43    23    42 1   
    44    24    25 ar  
    45    24    43 1   
    46    25    44 1   
@<TRIPOS>SUBSTRUCTURE
     1 976         1 TEMP              0 ****  ****    0 ROOT
