@<TRIPOS>MOLECULE
977
   23    24     1     0     0
SMALL
No Charge or Current Charge


@<TRIPOS>ATOM
      1 N1           3.2360    -0.2600     2.7640 nv         1 977      -1.066900
      2 C2           2.0270    -0.1060     2.1770 ca         1 977       0.439900
      3 N3           2.0150    -0.1150     0.8410 nb         1 977      -0.277000
      4 C4           0.8210     0.0240     0.2350 cp         1 977       0.285500
      5 C5          -0.3550     0.2050     1.0130 ca         1 977      -0.293900
      6 Br6         -2.0950     0.5210     0.2430 br         1 977      -0.074100
      7 C7          -0.2020     0.1990     2.4100 ca         1 977       0.432300
      8 O8          -1.2790     0.3700     3.2170 oh         1 977      -0.625300
      9 N9           0.9880     0.0380     3.0020 nb         1 977      -0.288000
     10 C10          0.8350    -0.0010    -1.2620 cp         1 977      -0.161500
     11 C11         -0.0510    -0.8320    -1.9950 ca         1 977      -0.070000
     12 C12         -0.0220    -0.8600    -3.4000 ca         1 977      -0.118000
     13 C13          0.8990    -0.0650    -4.1010 ca         1 977      -0.095000
     14 C14          1.7950     0.7540    -3.3950 ca         1 977      -0.118000
     15 C15          1.7670     0.7820    -1.9900 ca         1 977      -0.070000
     16 HN11         3.2610    -0.4960     3.7530 hn         1 977       0.510500
     17 HN12         4.0060    -0.6060     2.1960 hn         1 977       0.510500
     18 HO8         -2.0470     0.4770     2.6180 ho         1 977       0.494000
     19 H11         -0.7570    -1.4700    -1.4690 ha         1 977       0.121500
     20 H12         -0.7100    -1.5020    -3.9450 ha         1 977       0.115000
     21 H13          0.9220    -0.0870    -5.1890 ha         1 977       0.113000
     22 H14          2.5130     1.3660    -3.9360 ha         1 977       0.115000
     23 H15          2.4680     1.4230    -1.4590 ha         1 977       0.121500
@<TRIPOS>BOND
     1     1     2 1   
     2     1    16 1   
     3     1    17 1   
     4     2     3 ar  
     5     2     9 ar  
     6     3     4 ar  
     7     4     5 ar  
     8     4    10 1   
     9     5     6 1   
    10     5     7 ar  
    11     7     8 1   
    12     7     9 ar  
    13     8    18 1   
    14    10    11 ar  
    15    10    15 ar  
    16    11    12 ar  
    17    11    19 1   
    18    12    13 ar  
    19    12    20 1   
    20    13    14 ar  
    21    13    21 1   
    22    14    15 ar  
    23    14    22 1   
    24    15    23 1   
@<TRIPOS>SUBSTRUCTURE
     1 977         1 TEMP              0 ****  ****    0 ROOT
