@<TRIPOS>MOLECULE
977
   23    24     1     0     0
SMALL
bcc


@<TRIPOS>ATOM
      1 N1           3.1880    -0.4110     2.7170 nv         1 977      -0.956500
      2 C2           2.0040    -0.2030     2.1290 ca         1 977       0.965900
      3 N3           1.9730    -0.2120     0.7930 nb         1 977      -0.803000
      4 C4           0.8020     0.0030     0.2100 cp         1 977       0.613800
      5 C5          -0.3450     0.2510     0.9570 ca         1 977      -0.424500
      6 BR6         -1.9970     0.6980     0.1720 br         1 977      -0.074100
      7 C7          -0.2050     0.2300     2.3550 ca         1 977       0.760600
      8 O8          -1.1990     0.4460     3.2010 oh         1 977      -0.586300
      9 N9           0.9530    -0.0020     2.9270 nb         1 977      -0.814000
     10 C10          0.8100    -0.0160    -1.2700 cp         1 977      -0.161500
     11 C11         -0.0040    -0.8900    -1.9860 ca         1 977      -0.088000
     12 C12          0.0540    -0.9190    -3.3720 ca         1 977      -0.136000
     13 C13          0.9140    -0.0670    -4.0530 ca         1 977      -0.113000
     14 C14          1.7310     0.8030    -3.3420 ca         1 977      -0.136000
     15 C15          1.6880     0.8200    -1.9550 ca         1 977      -0.088000
     16 HN11         3.2630    -0.4470     3.7170 hn         1 977       0.455300
     17 HN12         4.0000    -0.6130     2.1630 hn         1 977       0.455300
     18 HO8         -2.0440     0.5920     2.7550 ho         1 977       0.455000
     19 H11         -0.6680    -1.5680    -1.4650 ha         1 977       0.139500
     20 H12         -0.5720    -1.6100    -3.9210 ha         1 977       0.133000
     21 H13          0.9520    -0.0850    -5.1340 ha         1 977       0.131000
     22 H14          2.4050     1.4660    -3.8670 ha         1 977       0.133000
     23 H15          2.3330     1.4920    -1.4020 ha         1 977       0.139500
@<TRIPOS>BOND
     1     1     2 1   
     2     1    16 1   
     3     1    17 1   
     4     2     3 ar  
     5     2     9 ar  
     6     3     4 ar  
     7     4     5 ar  
     8     4    10 1   
     9     5     6 1   
    10     5     7 ar  
    11     7     8 1   
    12     7     9 ar  
    13     8    18 1   
    14    10    11 ar  
    15    10    15 ar  
    16    11    12 ar  
    17    11    19 1   
    18    12    13 ar  
    19    12    20 1   
    20    13    14 ar  
    21    13    21 1   
    22    14    15 ar  
    23    14    22 1   
    24    15    23 1   
@<TRIPOS>SUBSTRUCTURE
     1 977         1 TEMP              0 ****  ****    0 ROOT
