@<TRIPOS>MOLECULE
978
   42    44     1     0     0
SMALL
abcg2


@<TRIPOS>ATOM
      1 C11         34.0010    19.4160    17.5550 ca         1 978      -0.122500
      2 C12         31.8650    20.5220    17.4900 ca         1 978      -0.122500
      3 C13         31.2590    19.4360    18.1000 ca         1 978      -0.111500
      4 C14         33.3960    18.3290    18.1640 ca         1 978      -0.111500
      5 C15         30.2220    16.8850    19.3800 c          1 978       0.536600
      6 C16         30.0340    15.5930    20.0730 cc         1 978       0.114500
      7 C4          35.2470    23.2840    15.5820 ca         1 978      -0.152600
      8 C1          36.1090    23.4560    14.4980 ca         1 978      -0.059000
      9 O4          31.1630    11.7460    21.9390 o          1 978      -0.369500
     10 O5          32.7780    12.9320    21.0900 o          1 978      -0.369500
     11 C17         30.6490    13.7190    20.9720 cc         1 978       0.045500
     12 O1          31.1200    14.8130    20.3390 os         1 978      -0.210000
     13 C18         29.2930    13.7660    21.1240 cd         1 978      -0.068000
     14 C19         28.8940    14.9910    20.5350 cd         1 978      -0.121000
     15 O2          29.2440    17.5850    19.1360 o          1 978      -0.565100
     16 C10         32.0280    18.3200    18.4440 ca         1 978      -0.061000
     17 C9          33.2340    20.5330    17.2090 ca         1 978      -0.035000
     18 N1          33.7610    21.6900    16.6160 ns         1 978      -0.143000
     19 C8          34.9920    21.8900    16.0650 c          1 978       0.618700
     20 O3          35.8390    21.0070    15.9540 o          1 978      -0.582100
     21 C5          34.6860    24.4040    16.2000 ca         1 978      -0.089000
     22 C2          34.9650    25.6940    15.7500 ca         1 978      -0.082300
     23 C7          34.3450    26.8910    16.4180 c3         1 978      -0.047800
     24 C6          35.8190    25.8430    14.6560 ca         1 978      -0.087000
     25 C3          36.3840    24.7340    14.0340 ca         1 978      -0.114000
     26 H1          35.0570    19.4000    17.3480 ha         1 978       0.133500
     27 H2          31.2630    21.3850    17.2300 ha         1 978       0.133500
     28 H3          30.2030    19.4540    18.3060 ha         1 978       0.133500
     29 H4          33.9990    17.4690    18.4320 ha         1 978       0.133500
     30 H5          36.5520    22.5880    14.0290 ha         1 978       0.136000
     31 H6          28.6740    13.0210    21.5930 ha         1 978       0.177000
     32 H7          27.8950    15.3850    20.4600 ha         1 978       0.175000
     33 H8          32.1980    16.4840    19.3340 hn         1 978       0.171000
     34 H9          33.1100    22.4570    16.5340 hn         1 978       0.154000
     35 H10         34.0490    24.2860    17.0690 ha         1 978       0.112000
     36 H11         33.3890    27.1410    15.9490 hc         1 978       0.045700
     37 H12         34.1520    26.6980    17.4740 hc         1 978       0.045700
     38 H13         34.9900    27.7660    16.3350 hc         1 978       0.045700
     39 H14         36.0490    26.8380    14.2940 ha         1 978       0.116000
     40 H15         37.0460    24.8690    13.1880 ha         1 978       0.121000
     41 N2          31.5090    17.1770    19.0760 ns         1 978      -0.122000
     42 N3          31.5970    12.7370    21.3560 no         1 978       0.600500
@<TRIPOS>BOND
     1     1     4 ar  
     2     1    17 ar  
     3     1    26 1   
     4     2     3 ar  
     5     2    17 ar  
     6     2    27 1   
     7     3    16 ar  
     8     3    28 1   
     9     4    16 ar  
    10     4    29 1   
    11     5     6 1   
    12     5    15 2   
    13     5    41 1   
    14     6    12 1   
    15     6    14 2   
    16     7     8 ar  
    17     7    19 1   
    18     7    21 ar  
    19     8    25 ar  
    20     8    30 1   
    21     9    42 1   
    22    10    42 1   
    23    11    12 1   
    24    11    13 2   
    25    11    42 1   
    26    13    14 1   
    27    13    31 1   
    28    14    32 1   
    29    16    41 1   
    30    17    18 1   
    31    18    19 1   
    32    18    34 1   
    33    19    20 2   
    34    21    22 ar  
    35    21    35 1   
    36    22    23 1   
    37    22    24 ar  
    38    23    36 1   
    39    23    37 1   
    40    23    38 1   
    41    24    25 ar  
    42    24    39 1   
    43    25    40 1   
    44    33    41 1   
@<TRIPOS>SUBSTRUCTURE
     1 978         1 TEMP              0 ****  ****    0 ROOT
