@<TRIPOS>MOLECULE
978
   42    44     1     0     0
SMALL
No Charge or Current Charge


@<TRIPOS>ATOM
      1 C11         33.9850    19.3020    17.4280 ca         1 978      -0.122500
      2 C12         32.0990    20.7250    17.9690 ca         1 978      -0.122500
      3 C13         31.4480    19.6390    18.5810 ca         1 978      -0.111500
      4 C14         33.3340    18.2160    18.0400 ca         1 978      -0.111500
      5 C15         30.2530    17.0240    19.8700 c          1 978       0.536600
      6 C16         30.0860    15.6200    20.3320 cc         1 978       0.114500
      7 C4          35.4170    23.3400    15.6290 ca         1 978      -0.152600
      8 C1          36.6180    23.6320    14.9430 ca         1 978      -0.059000
      9 O4          30.7770    11.2340    21.1860 o          1 978      -0.369500
     10 O5          32.3930    12.2540    20.1200 o          1 978      -0.369500
     11 C17         30.5180    13.4710    20.7050 cc         1 978       0.045500
     12 O1          31.0300    14.6290    20.1410 os         1 978      -0.210000
     13 C18         29.2810    13.7430    21.2350 cd         1 978      -0.068000
     14 C19         29.0060    15.1070    20.9990 cd         1 978      -0.121000
     15 O2          29.4080    17.8980    20.0460 o          1 978      -0.565100
     16 C10         32.0620    18.3700    18.6220 ca         1 978      -0.061000
     17 C9          33.3700    20.5720    17.3860 ca         1 978      -0.035000
     18 N1          33.9610    21.7200    16.7870 ns         1 978      -0.143000
     19 C8          35.1660    21.9230    16.1210 c          1 978       0.618700
     20 O3          35.9880    21.0330    15.9300 o          1 978      -0.582100
     21 C5          34.4850    24.3900    15.8340 ca         1 978      -0.089000
     22 C2          34.7480    25.6920    15.3660 ca         1 978      -0.082300
     23 C7          33.7330    26.8020    15.5930 c3         1 978      -0.047800
     24 C6          35.9480    25.9580    14.6840 ca         1 978      -0.087000
     25 C3          36.8800    24.9300    14.4740 ca         1 978      -0.114000
     26 H1          34.9650    19.1310    16.9950 ha         1 978       0.133500
     27 H2          31.6060    21.6950    17.9490 ha         1 978       0.133500
     28 H3          30.4680    19.8100    19.0160 ha         1 978       0.133500
     29 H4          33.8280    17.2460    18.0600 ha         1 978       0.133500
     30 H5          37.3570    22.8520    14.7670 ha         1 978       0.136000
     31 H6          28.6350    13.0330    21.7430 ha         1 978       0.177000
     32 H7          28.1120    15.6510    21.2880 ha         1 978       0.175000
     33 H8          32.0410    16.3910    19.1690 hn         1 978       0.171000
     34 H9          33.3900    22.5510    16.8610 hn         1 978       0.154000
     35 H10         33.5470    24.2130    16.3540 ha         1 978       0.112000
     36 H11         32.9460    26.7730    14.8310 hc         1 978       0.045700
     37 H12         33.2540    26.7090    16.5750 hc         1 978       0.045700
     38 H13         34.2030    27.7930    15.5510 hc         1 978       0.045700
     39 H14         36.1590    26.9590    14.3150 ha         1 978       0.116000
     40 H15         37.8080    25.1390    13.9460 ha         1 978       0.121000
     41 N2          31.4680    17.2240    19.2230 ns         1 978      -0.122000
     42 N3          31.2810    12.2390    20.6670 no         1 978       0.600500
@<TRIPOS>BOND
     1     1     4 ar  
     2     1    17 ar  
     3     1    26 1   
     4     2     3 ar  
     5     2    17 ar  
     6     2    27 1   
     7     3    16 ar  
     8     3    28 1   
     9     4    16 ar  
    10     4    29 1   
    11     5     6 1   
    12     5    15 2   
    13     5    41 1   
    14     6    12 1   
    15     6    14 2   
    16     7     8 ar  
    17     7    19 1   
    18     7    21 ar  
    19     8    25 ar  
    20     8    30 1   
    21     9    42 1   
    22    10    42 1   
    23    11    12 1   
    24    11    13 2   
    25    11    42 1   
    26    13    14 1   
    27    13    31 1   
    28    14    32 1   
    29    16    41 1   
    30    17    18 1   
    31    18    19 1   
    32    18    34 1   
    33    19    20 2   
    34    21    22 ar  
    35    21    35 1   
    36    22    23 1   
    37    22    24 ar  
    38    23    36 1   
    39    23    37 1   
    40    23    38 1   
    41    24    25 ar  
    42    24    39 1   
    43    25    40 1   
    44    33    41 1   
@<TRIPOS>SUBSTRUCTURE
     1 978         1 TEMP              0 ****  ****    0 ROOT
