@<TRIPOS>MOLECULE
979
   55    59     1     0     0
SMALL
abcg2


@<TRIPOS>ATOM
      1 C1           2.4630    -6.1170     1.6770 ca         1 979       0.185900
      2 N2           2.1300    -5.5900     0.5090 nb         1 979      -0.204000
      3 C3           1.4670    -4.4580     0.6530 ca         1 979       0.293300
      4 C4           1.1180    -3.8330     1.8330 ca         1 979      -0.280800
      5 C5           1.5630    -4.4770     3.0100 ca         1 979       0.439900
      6 N6           2.2270    -5.6310     2.8890 nb         1 979      -0.293000
      7 O8           1.0350    -3.7430    -0.3910 os         1 979      -0.271400
      8 C9           0.3890    -2.6410     0.1020 cc         1 979       0.090900
      9 C10          0.4130    -2.6380     1.4640 cd         1 979      -0.043400
     10 N11          1.3430    -3.9770     4.2300 nu         1 979      -0.919100
     11 C12          1.8270    -4.5700     5.4570 c3         1 979       0.226800
     12 C13          1.0760    -3.9550     6.6310 c3         1 979       0.151800
     13 N16          1.5780    -4.4200     7.9050 n3         1 979      -0.721600
     14 C33         -0.1320    -1.6230     2.3780 ca         1 979      -0.034800
     15 C34         -1.1190    -1.9680     3.3030 ca         1 979      -0.101500
     16 C35         -1.6210    -1.0190     4.1820 ca         1 979      -0.113500
     17 C36         -1.1450     0.2850     4.1440 ca         1 979      -0.108000
     18 C37         -0.1650     0.6360     3.2250 ca         1 979      -0.113500
     19 C38          0.3430    -0.3120     2.3500 ca         1 979      -0.101500
     20 C44         -0.1790    -1.7360    -0.8870 ca         1 979      -0.039800
     21 C45          0.3770    -1.6450    -2.1660 ca         1 979      -0.081000
     22 C46         -0.1660    -0.7830    -3.1070 ca         1 979      -0.116000
     23 C47         -1.2680    -0.0020    -2.7890 ca         1 979      -0.097000
     24 C48         -1.8310    -0.0930    -1.5220 ca         1 979      -0.116000
     25 C49         -1.2960    -0.9550    -0.5790 ca         1 979      -0.081000
     26 C2           1.1480    -3.5580     8.9930 c6         1 979       0.164300
     27 C7           1.2120    -5.8000     8.1850 c6         1 979       0.164300
     28 C11          1.7570    -4.0140    10.3060 c6         1 979       0.157300
     29 C15          1.8190    -6.2540     9.5000 c6         1 979       0.157300
     30 N1           1.3660    -5.3850    10.5690 n7         1 979      -0.864400
     31 H1           3.0020    -7.0580     1.6430 h5         1 979       0.051100
     32 HN11         0.9630    -3.0450     4.2840 hn         1 979       0.503000
     33 H121         2.9010    -4.4010     5.5830 h1         1 979       0.065200
     34 H122         1.6720    -5.6470     5.4070 h1         1 979       0.065200
     35 H131        -0.0050    -4.1400     6.5130 h1         1 979       0.034700
     36 H132         1.2130    -2.8690     6.5960 h1         1 979       0.034700
     37 H38          1.1140    -0.0390     1.6410 ha         1 979       0.123500
     38 H37          0.2110     1.6510     3.1950 ha         1 979       0.116500
     39 H36         -1.5380     1.0250     4.8300 ha         1 979       0.115000
     40 H35         -2.3860    -1.2980     4.8940 ha         1 979       0.116500
     41 H34         -1.5060    -2.9800     3.3240 ha         1 979       0.123500
     42 H45          1.2440    -2.2360    -2.4310 ha         1 979       0.125500
     43 H46          0.2780    -0.7220    -4.0920 ha         1 979       0.115500
     44 H47         -1.6900     0.6710    -3.5240 ha         1 979       0.114000
     45 H48         -2.6990     0.5010    -1.2690 ha         1 979       0.115500
     46 H49         -1.7590    -1.0280     0.3960 ha         1 979       0.125500
     47 H21          0.0490    -3.5450     9.0910 h1         1 979       0.039450
     48 H22          1.4670    -2.5340     8.7830 h1         1 979       0.039450
     49 H2           1.5760    -6.4490     7.3880 h1         1 979       0.039450
     50 H111         2.8500    -3.8860    10.2480 h1         1 979       0.037950
     51 H112         1.3950    -3.3720    11.1120 h1         1 979       0.037950
     52 H3           1.5030    -7.2780     9.7050 h1         1 979       0.037950
     53 HN1          1.7550    -5.6910    11.4500 hn         1 979       0.414000
     54 H7           0.1160    -5.9210     8.2300 h1         1 979       0.039450
     55 H15          2.9160    -6.2630     9.3950 h1         1 979       0.037950
@<TRIPOS>BOND
     1     1     2 ar  
     2     1     6 ar  
     3     1    31 1   
     4     2     3 ar  
     5     3     4 ar  
     6     3     7 1   
     7     4     5 ar  
     8     4     9 1   
     9     5     6 ar  
    10     5    10 1   
    11     7     8 1   
    12     8     9 2   
    13     8    20 1   
    14     9    14 1   
    15    10    11 1   
    16    10    32 1   
    17    11    12 1   
    18    11    33 1   
    19    11    34 1   
    20    12    13 1   
    21    12    35 1   
    22    12    36 1   
    23    13    26 1   
    24    13    27 1   
    25    14    15 ar  
    26    14    19 ar  
    27    15    16 ar  
    28    15    41 1   
    29    16    17 ar  
    30    16    40 1   
    31    17    18 ar  
    32    17    39 1   
    33    18    19 ar  
    34    18    38 1   
    35    19    37 1   
    36    20    21 ar  
    37    20    25 ar  
    38    21    22 ar  
    39    21    42 1   
    40    22    23 ar  
    41    22    43 1   
    42    23    24 ar  
    43    23    44 1   
    44    24    25 ar  
    45    24    45 1   
    46    25    46 1   
    47    26    28 1   
    48    26    47 1   
    49    26    48 1   
    50    27    29 1   
    51    27    49 1   
    52    27    54 1   
    53    28    30 1   
    54    28    50 1   
    55    28    51 1   
    56    29    30 1   
    57    29    52 1   
    58    29    55 1   
    59    30    53 1   
@<TRIPOS>SUBSTRUCTURE
     1 979         1 TEMP              0 ****  ****    0 ROOT
