@<TRIPOS>MOLECULE
979
   55    59     1     0     0
SMALL
No Charge or Current Charge


@<TRIPOS>ATOM
      1 C1           2.4480    -6.3660     1.4740 ca         1 979       0.185900
      2 N2           2.1540    -5.7610     0.3000 nb         1 979      -0.204000
      3 C3           1.4540    -4.6190     0.4080 ca         1 979       0.293300
      4 C4           1.0520    -4.1060     1.6200 ca         1 979      -0.280800
      5 C5           1.4450    -4.7670     2.7920 ca         1 979       0.439900
      6 N6           2.1420    -5.9180     2.7160 nb         1 979      -0.293000
      7 O8           1.1110    -3.8140    -0.6560 os         1 979      -0.271400
      8 C9           0.4750    -2.7290    -0.0630 cc         1 979       0.090900
      9 C10          0.3450    -2.8830     1.3100 cd         1 979      -0.043400
     10 N11          1.2270    -4.2360     4.0490 nu         1 979      -0.919100
     11 C12          1.6590    -4.7850     5.3520 c3         1 979       0.226800
     12 C13          1.1860    -3.8930     6.5370 c3         1 979       0.151800
     13 N16          1.6470    -4.3150     7.8890 n3         1 979      -0.721600
     14 C33         -0.1670    -1.9020     2.2900 ca         1 979      -0.034800
     15 C34         -0.9430    -2.3250     3.3900 ca         1 979      -0.101500
     16 C35         -1.4360    -1.3950     4.3210 ca         1 979      -0.113500
     17 C36         -1.1720    -0.0260     4.1540 ca         1 979      -0.108000
     18 C37         -0.4240     0.4100     3.0490 ca         1 979      -0.113500
     19 C38          0.0690    -0.5220     2.1190 ca         1 979      -0.101500
     20 C44         -0.0960    -1.6540    -0.8760 ca         1 979      -0.039800
     21 C45          0.6400    -1.1320    -1.9580 ca         1 979      -0.081000
     22 C46          0.1040    -0.1060    -2.7550 ca         1 979      -0.116000
     23 C47         -1.1770     0.4020    -2.4820 ca         1 979      -0.097000
     24 C48         -1.9240    -0.1230    -1.4140 ca         1 979      -0.116000
     25 C49         -1.3880    -1.1490    -0.6170 ca         1 979      -0.081000
     26 C2           1.3130    -3.3010     8.9400 c6         1 979       0.164300
     27 C7           1.1440    -5.6660     8.3060 c6         1 979       0.164300
     28 C11          1.8320    -3.7130    10.3570 c6         1 979       0.157300
     29 C15          1.6590    -6.0840     9.7250 c6         1 979       0.157300
     30 N1           1.3540    -5.0640    10.7690 n7         1 979      -0.864400
     31 H1           3.0110    -7.2960     1.4160 h5         1 979       0.051100
     32 HN11         0.8230    -3.3000     4.0410 hn         1 979       0.503000
     33 H121         2.7550    -4.8580     5.3840 h1         1 979       0.065200
     34 H122         1.2530    -5.7970     5.4770 h1         1 979       0.065200
     35 H131         0.0880    -3.8510     6.5190 h1         1 979       0.034700
     36 H132         1.5450    -2.8740     6.3420 h1         1 979       0.034700
     37 H38          0.6600    -0.1680     1.2780 ha         1 979       0.123500
     38 H37         -0.2240     1.4710     2.9120 ha         1 979       0.116500
     39 H36         -1.5550     0.6950     4.8730 ha         1 979       0.115000
     40 H35         -2.0340    -1.7340     5.1640 ha         1 979       0.116500
     41 H34         -1.2000    -3.3760     3.5050 ha         1 979       0.123500
     42 H45          1.6320    -1.5200    -2.1770 ha         1 979       0.125500
     43 H46          0.6820     0.2950    -3.5850 ha         1 979       0.115500
     44 H47         -1.5920     1.1960    -3.0990 ha         1 979       0.114000
     45 H48         -2.9190     0.2630    -1.2050 ha         1 979       0.115500
     46 H49         -1.9800    -1.5560     0.2000 ha         1 979       0.125500
     47 H21          0.2230    -3.1600     8.9940 h1         1 979       0.039450
     48 H22          1.7490    -2.3250     8.6790 h1         1 979       0.039450
     49 H2           1.4620    -6.4370     7.5910 h1         1 979       0.039450
     50 H111         2.9320    -3.7090    10.3450 h1         1 979       0.037950
     51 H112         1.5090    -2.9660    11.0980 h1         1 979       0.037950
     52 H3           1.2110    -7.0470    10.0080 h1         1 979       0.037950
     53 HN1          1.8150    -5.3330    11.6480 hn         1 979       0.414000
     54 H7           0.0440    -5.6720     8.3170 h1         1 979       0.039450
     55 H15          2.7480    -6.2310     9.6740 h1         1 979       0.037950
@<TRIPOS>BOND
     1     1     2 ar  
     2     1     6 ar  
     3     1    31 1   
     4     2     3 ar  
     5     3     4 ar  
     6     3     7 1   
     7     4     5 ar  
     8     4     9 1   
     9     5     6 ar  
    10     5    10 1   
    11     7     8 1   
    12     8     9 2   
    13     8    20 1   
    14     9    14 1   
    15    10    11 1   
    16    10    32 1   
    17    11    12 1   
    18    11    33 1   
    19    11    34 1   
    20    12    13 1   
    21    12    35 1   
    22    12    36 1   
    23    13    26 1   
    24    13    27 1   
    25    14    15 ar  
    26    14    19 ar  
    27    15    16 ar  
    28    15    41 1   
    29    16    17 ar  
    30    16    40 1   
    31    17    18 ar  
    32    17    39 1   
    33    18    19 ar  
    34    18    38 1   
    35    19    37 1   
    36    20    21 ar  
    37    20    25 ar  
    38    21    22 ar  
    39    21    42 1   
    40    22    23 ar  
    41    22    43 1   
    42    23    24 ar  
    43    23    44 1   
    44    24    25 ar  
    45    24    45 1   
    46    25    46 1   
    47    26    28 1   
    48    26    47 1   
    49    26    48 1   
    50    27    29 1   
    51    27    49 1   
    52    27    54 1   
    53    28    30 1   
    54    28    50 1   
    55    28    51 1   
    56    29    30 1   
    57    29    52 1   
    58    29    55 1   
    59    30    53 1   
@<TRIPOS>SUBSTRUCTURE
     1 979         1 TEMP              0 ****  ****    0 ROOT
