@<TRIPOS>MOLECULE
97A
   34    35     1     0     0
SMALL
abcg2


@<TRIPOS>ATOM
      1 C5          -4.0290     0.3740     0.2670 c5         1 97A       0.162300
      2 C8          -3.9400    -0.8190     1.2070 c5         1 97A      -0.211400
      3 C13         -0.1040    -1.8610    -0.7730 ca         1 97A      -0.088000
      4 C15          2.1650    -1.0580    -0.7040 ca         1 97A       0.016000
      5 C20          2.7350     1.1450     0.3530 c3         1 97A       0.359300
      6 C1          -3.0270     2.8510    -1.2460 c3         1 97A      -0.088100
      7 C2          -2.2360     1.5530    -1.1580 c3         1 97A      -0.078400
      8 C3          -2.5580     0.7790     0.1110 c5         1 97A       0.122700
      9 O7          -4.5220    -0.0070    -0.9900 oh         1 97A      -0.644000
     10 C9          -2.6420    -1.4780     0.8200 c          1 97A       0.580000
     11 O10         -2.2930    -2.6140     1.0560 o          1 97A      -0.517000
     12 N11         -1.8820    -0.5260     0.1910 n          1 97A      -0.243400
     13 C12         -0.5350    -0.7140    -0.1130 ca         1 97A      -0.002000
     14 C14          1.2370    -2.0310    -1.0610 ca         1 97A      -0.062000
     15 C16          3.5360    -1.2720    -1.0360 cg         1 97A       0.311000
     16 N17          4.6340    -1.4740    -1.3180 n1         1 97A      -0.421000
     17 C18          1.7350     0.0990    -0.0430 ca         1 97A      -0.149300
     18 C19          0.3970     0.2600     0.2540 ca         1 97A      -0.105000
     19 F21          3.3880     1.6210    -0.7140 f          1 97A      -0.107333
     20 F22          2.1690     2.1830     0.9670 f          1 97A      -0.107333
     21 F23          3.6570     0.6440     1.1830 f          1 97A      -0.107333
     22 H1          -4.6040     1.1980     0.7000 h1         1 97A       0.053700
     23 H2          -3.8510    -0.4890     2.2480 hc         1 97A       0.086200
     24 H3          -4.7860    -1.5040     1.1470 hc         1 97A       0.086200
     25 H4          -0.8100    -2.6150    -1.0870 ha         1 97A       0.146000
     26 H5          -4.0950     2.6680    -1.3560 hc         1 97A       0.037700
     27 H6          -2.8810     3.4680    -0.3580 hc         1 97A       0.037700
     28 H7          -2.7020     3.4360    -2.1060 hc         1 97A       0.037700
     29 H8          -2.4270     0.9280    -2.0320 hc         1 97A       0.060700
     30 H9          -1.1710     1.7920    -1.1770 hc         1 97A       0.060700
     31 H10         -2.2860     1.3890     0.9820 h1         1 97A       0.051700
     32 H11         -5.4460    -0.2600    -0.8900 ho         1 97A       0.450000
     33 H12          1.5670    -2.9200    -1.5810 ha         1 97A       0.136000
     34 H13          0.0620     1.1380     0.7890 ha         1 97A       0.137000
@<TRIPOS>BOND
     1     1     2 1   
     2     1     8 1   
     3     1     9 1   
     4     1    22 1   
     5     2    10 1   
     6     2    23 1   
     7     2    24 1   
     8     3    13 ar  
     9     3    14 ar  
    10     3    25 1   
    11     4    14 ar  
    12     4    15 1   
    13     4    17 ar  
    14     5    17 1   
    15     5    19 1   
    16     5    20 1   
    17     5    21 1   
    18     6     7 1   
    19     6    26 1   
    20     6    27 1   
    21     6    28 1   
    22     7     8 1   
    23     7    29 1   
    24     7    30 1   
    25     8    12 1   
    26     8    31 1   
    27     9    32 1   
    28    10    11 2   
    29    10    12 1   
    30    12    13 1   
    31    13    18 ar  
    32    14    33 1   
    33    15    16 3   
    34    17    18 ar  
    35    18    34 1   
@<TRIPOS>SUBSTRUCTURE
     1 97A         1 TEMP              0 ****  ****    0 ROOT
