@<TRIPOS>MOLECULE
97A
   34    35     1     0     0
SMALL
No Charge or Current Charge


@<TRIPOS>ATOM
      1 C5          -4.1120     0.3160     0.2450 c5         1 97A       0.162300
      2 C8          -3.9310    -0.8150     1.2740 c5         1 97A      -0.211400
      3 C13         -0.0680    -1.8770    -0.8070 ca         1 97A      -0.088000
      4 C15          2.2470    -1.1050    -0.7090 ca         1 97A       0.016000
      5 C20          2.8360     1.1610     0.3940 c3         1 97A       0.359300
      6 C1          -3.0820     2.9630    -1.2530 c3         1 97A      -0.088100
      7 C2          -2.3000     1.6350    -1.1710 c3         1 97A      -0.078400
      8 C3          -2.6140     0.7860     0.0950 c5         1 97A       0.122700
      9 O7          -4.6750    -0.2010    -0.9640 oh         1 97A      -0.644000
     10 C9          -2.6610    -1.5140     0.8010 c          1 97A       0.580000
     11 O10         -2.4180    -2.7130     0.8100 o          1 97A      -0.517000
     12 N11         -1.8910    -0.5110     0.1840 n          1 97A      -0.243400
     13 C12         -0.5210    -0.6700    -0.2430 ca         1 97A      -0.002000
     14 C14          1.2960    -2.0790    -1.0640 ca         1 97A      -0.062000
     15 C16          3.6330    -1.3750    -1.0010 cg         1 97A       0.311000
     16 N17          4.7520    -1.6050    -1.2430 n1         1 97A      -0.421000
     17 C18          1.8240     0.0860    -0.0570 ca         1 97A      -0.149300
     18 C19          0.4410     0.2650     0.1910 ca         1 97A      -0.105000
     19 F21          3.5420     1.6550    -0.6490 f          1 97A      -0.107333
     20 F22          2.2510     2.2240     0.9920 f          1 97A      -0.107333
     21 F23          3.7280     0.6690     1.2830 f          1 97A      -0.107333
     22 H1          -4.7420     1.1260     0.6370 h1         1 97A       0.053700
     23 H2          -3.7180    -0.3620     2.2490 hc         1 97A       0.086200
     24 H3          -4.7660    -1.5140     1.3770 hc         1 97A       0.086200
     25 H4          -0.7740    -2.6530    -1.0910 ha         1 97A       0.146000
     26 H5          -4.1620     2.7810    -1.3130 hc         1 97A       0.037700
     27 H6          -2.8830     3.5850    -0.3730 hc         1 97A       0.037700
     28 H7          -2.7830     3.5270    -2.1450 hc         1 97A       0.037700
     29 H8          -2.5040     1.0480    -2.0740 hc         1 97A       0.060700
     30 H9          -1.2320     1.8790    -1.2060 hc         1 97A       0.060700
     31 H10         -2.3430     1.3970     0.9670 h1         1 97A       0.051700
     32 H11         -5.6290    -0.3630    -0.7920 ho         1 97A       0.450000
     33 H12          1.6150    -3.0060    -1.5380 ha         1 97A       0.136000
     34 H13          0.0990     1.1460     0.7290 ha         1 97A       0.137000
@<TRIPOS>BOND
     1     1     2 1   
     2     1     8 1   
     3     1     9 1   
     4     1    22 1   
     5     2    10 1   
     6     2    23 1   
     7     2    24 1   
     8     3    13 ar  
     9     3    14 ar  
    10     3    25 1   
    11     4    14 ar  
    12     4    15 1   
    13     4    17 ar  
    14     5    17 1   
    15     5    19 1   
    16     5    20 1   
    17     5    21 1   
    18     6     7 1   
    19     6    26 1   
    20     6    27 1   
    21     6    28 1   
    22     7     8 1   
    23     7    29 1   
    24     7    30 1   
    25     8    12 1   
    26     8    31 1   
    27     9    32 1   
    28    10    11 2   
    29    10    12 1   
    30    12    13 1   
    31    13    18 ar  
    32    14    33 1   
    33    15    16 3   
    34    17    18 ar  
    35    18    34 1   
@<TRIPOS>SUBSTRUCTURE
     1 97A         1 TEMP              0 ****  ****    0 ROOT
