@<TRIPOS>MOLECULE
97B
   65    70     1     0     0
SMALL
No Charge or Current Charge


@<TRIPOS>ATOM
      1 O1           7.4220     0.4350     2.1880 o          1 97B      -0.600100
      2 C20          6.9480     0.5870     1.0690 c          1 97B       0.621700
      3 N5           7.7280     1.1280     0.0220 n          1 97B      -0.406800
      4 C24          7.5810     0.6600    -1.3890 c6         1 97B       0.095500
      5 C23          8.7470    -0.2740    -1.8230 c6         1 97B       0.137800
      6 N6          10.0830     0.3430    -1.5830 n3         1 97B      -0.715600
      7 C25         11.1960    -0.5160    -2.0410 c3         1 97B       0.152100
      8 C22         10.2210     0.7500    -0.1560 c6         1 97B       0.137800
      9 C21          9.0780     1.7060     0.2800 c6         1 97B       0.095500
     10 C17          5.4830     0.3010     0.8150 ca         1 97B      -0.178600
     11 C18          4.8330    -0.7030     1.5620 ca         1 97B      -0.043000
     12 C19          3.4680    -0.9720     1.3590 ca         1 97B      -0.166000
     13 C16          4.7280     1.0510    -0.1140 ca         1 97B      -0.043000
     14 C15          3.3630     0.7770    -0.3100 ca         1 97B      -0.166000
     15 C14          2.7220    -0.2310     0.4300 ca         1 97B       0.337000
     16 N4           1.3700    -0.5470     0.2570 nu         1 97B      -0.924900
     17 C13          0.2490     0.1580    -0.1650 ca         1 97B       0.391900
     18 N3          -0.8540    -0.5900    -0.3260 nb         1 97B      -0.244000
     19 N2           0.3470     1.4860    -0.3510 nb         1 97B      -0.224000
     20 C12         -0.7700     2.1200    -0.7510 ca         1 97B       0.165900
     21 C9          -1.9750     1.4250    -0.9560 ca         1 97B      -0.244300
     22 C10         -1.9840     0.0350    -0.7140 cp         1 97B       0.225500
     23 C8          -3.2160     2.1450    -1.4240 c3         1 97B       0.169100
     24 N1          -4.2020     2.1120    -0.3510 n2         1 97B      -0.543900
     25 C7          -4.8200     1.0230    -0.0100 ce         1 97B       0.528500
     26 C2          -4.5250    -0.3380    -0.5980 ca         1 97B      -0.139900
     27 C3          -3.2090    -0.8040    -0.9260 cp         1 97B      -0.132500
     28 C4          -3.0680    -2.1180    -1.4500 ca         1 97B      -0.063000
     29 C5          -4.1800    -2.9440    -1.6680 ca         1 97B      -0.100000
     30 C1          -5.6330    -1.1860    -0.8430 ca         1 97B      -0.086000
     31 C6          -5.4610    -2.4730    -1.3680 ca         1 97B       0.128000
     32 Cl1         -6.8620    -3.4990    -1.6500 cl         1 97B      -0.189000
     33 C11         -5.9030     1.1150     1.0040 ca         1 97B      -0.228900
     34 C26         -6.9620     2.0330     0.8620 ca         1 97B       0.226500
     35 F2          -7.0520     2.8170    -0.2360 f          1 97B      -0.161500
     36 C27         -7.9680     2.1220     1.8370 ca         1 97B      -0.176000
     37 C28         -7.9240     1.3020     2.9760 ca         1 97B      -0.046000
     38 C29         -6.8650     0.3930     3.1320 ca         1 97B      -0.176000
     39 C30         -5.8620     0.3040     2.1540 ca         1 97B       0.226500
     40 F1          -4.8410    -0.5610     2.3440 f          1 97B      -0.161500
     41 H24          6.6410     0.1120    -1.5310 h1         1 97B       0.063700
     42 H24A         7.5540     1.5350    -2.0540 h1         1 97B       0.063700
     43 H23          8.6620    -1.2190    -1.2670 h1         1 97B       0.040950
     44 H23A         8.6240    -0.5160    -2.8890 h1         1 97B       0.040950
     45 H25         11.0910    -0.7510    -3.1080 h1         1 97B       0.032033
     46 H25A        12.1600    -0.0080    -1.9000 h1         1 97B       0.032033
     47 H25B        11.2200    -1.4600    -1.4810 h1         1 97B       0.032033
     48 H22         10.2080    -0.1360     0.4970 h1         1 97B       0.040950
     49 H22A        11.1840     1.2570     0.0060 h1         1 97B       0.040950
     50 H21          9.1690     2.6460    -0.2820 h1         1 97B       0.063700
     51 H21A         9.1970     1.9590     1.3430 h1         1 97B       0.063700
     52 H18          5.3880    -1.2850     2.2950 ha         1 97B       0.124500
     53 H19          2.9890    -1.7560     1.9380 ha         1 97B       0.133500
     54 H16          5.1890     1.8580    -0.6800 ha         1 97B       0.124500
     55 H15          2.8160     1.3500    -1.0510 ha         1 97B       0.133500
     56 HN4          1.1300    -1.4830     0.5790 hn         1 97B       0.512000
     57 H12         -0.6940     3.1940    -0.9130 h4         1 97B       0.030100
     58 H8          -2.9680     3.1830    -1.6840 h1         1 97B       0.067200
     59 H8A         -3.6000     1.6650    -2.3350 h1         1 97B       0.067200
     60 H4          -2.0810    -2.5000    -1.7030 ha         1 97B       0.137000
     61 H5          -4.0480    -3.9430    -2.0750 ha         1 97B       0.135000
     62 H1          -6.6430    -0.8490    -0.6230 ha         1 97B       0.137000
     63 H27         -8.7850     2.8270     1.7050 ha         1 97B       0.140500
     64 H28         -8.7030     1.3710     3.7330 ha         1 97B       0.124000
     65 H29         -6.8160    -0.2410     4.0130 ha         1 97B       0.140500
@<TRIPOS>BOND
     1     1     2 2   
     2     2     3 1   
     3     2    10 1   
     4     3     4 1   
     5     3     9 1   
     6     4     5 1   
     7     4    41 1   
     8     4    42 1   
     9     5     6 1   
    10     5    43 1   
    11     5    44 1   
    12     6     7 1   
    13     6     8 1   
    14     7    45 1   
    15     7    46 1   
    16     7    47 1   
    17     8     9 1   
    18     8    48 1   
    19     8    49 1   
    20     9    50 1   
    21     9    51 1   
    22    10    11 ar  
    23    10    13 ar  
    24    11    12 ar  
    25    11    52 1   
    26    12    15 ar  
    27    12    53 1   
    28    13    14 ar  
    29    13    54 1   
    30    14    15 ar  
    31    14    55 1   
    32    15    16 1   
    33    16    17 1   
    34    16    56 1   
    35    17    18 ar  
    36    17    19 ar  
    37    18    22 ar  
    38    19    20 ar  
    39    20    21 ar  
    40    20    57 1   
    41    21    22 ar  
    42    21    23 1   
    43    22    27 1   
    44    23    24 1   
    45    23    58 1   
    46    23    59 1   
    47    24    25 2   
    48    25    26 1   
    49    25    33 1   
    50    26    27 ar  
    51    26    30 ar  
    52    27    28 ar  
    53    28    29 ar  
    54    28    60 1   
    55    29    31 ar  
    56    29    61 1   
    57    30    31 ar  
    58    30    62 1   
    59    31    32 1   
    60    33    34 ar  
    61    33    39 ar  
    62    34    35 1   
    63    34    36 ar  
    64    36    37 ar  
    65    36    63 1   
    66    37    38 ar  
    67    37    64 1   
    68    38    39 ar  
    69    38    65 1   
    70    39    40 1   
@<TRIPOS>SUBSTRUCTURE
     1 97B         1 TEMP              0 ****  ****    0 ROOT
