@<TRIPOS>MOLECULE
97B
   65    70     1     0     0
SMALL
abcg2


@<TRIPOS>ATOM
      1 O1           7.1700     0.0160     2.3110 o          1 97B      -0.600100
      2 C20          6.7930     0.3520     1.1940 c          1 97B       0.621700
      3 N5           7.5900     1.0100     0.3220 n          1 97B      -0.406800
      4 C24          7.4110     1.0480    -1.1200 c6         1 97B       0.095500
      5 C23          8.5020     0.2390    -1.8060 c6         1 97B       0.137800
      6 N6           9.8200     0.6920    -1.4150 n3         1 97B      -0.715600
      7 C25         10.8590    -0.0250    -2.1190 c3         1 97B       0.152100
      8 C22          9.9830     0.6020     0.0230 c6         1 97B       0.137800
      9 C21          8.9220     1.4330     0.7230 c6         1 97B       0.095500
     10 C17          5.3820     0.0800     0.7940 ca         1 97B      -0.178600
     11 C18          4.8110    -1.1460     1.1330 ca         1 97B      -0.043000
     12 C19          3.4800    -1.4000     0.8760 ca         1 97B      -0.166000
     13 C16          4.5620     1.0480     0.2240 ca         1 97B      -0.043000
     14 C15          3.2170     0.8160    -0.0190 ca         1 97B      -0.166000
     15 C14          2.6560    -0.4230     0.3010 ca         1 97B       0.337000
     16 N4           1.3310    -0.7790     0.1020 nu         1 97B      -0.924900
     17 C13          0.2660    -0.0820    -0.3830 ca         1 97B       0.391900
     18 N3          -0.8740    -0.7740    -0.4070 nb         1 97B      -0.244000
     19 N2           0.4100     1.1790    -0.7770 nb         1 97B      -0.224000
     20 C12         -0.6770     1.7780    -1.2340 ca         1 97B       0.165900
     21 C9          -1.9130     1.1610    -1.3150 ca         1 97B      -0.244300
     22 C10         -1.9550    -0.1590    -0.8580 cp         1 97B       0.225500
     23 C8          -3.1410     1.8330    -1.8330 c3         1 97B       0.169100
     24 N1          -4.0750     2.0500    -0.7440 n2         1 97B      -0.543900
     25 C7          -4.6430     1.0400    -0.2340 ce         1 97B       0.528500
     26 C2          -4.4580    -0.3780    -0.6360 ca         1 97B      -0.139900
     27 C3          -3.2010    -0.9420    -0.9050 cp         1 97B      -0.132500
     28 C4          -3.1180    -2.3060    -1.1900 ca         1 97B      -0.063000
     29 C5          -4.2460    -3.0990    -1.2550 ca         1 97B      -0.100000
     30 C1          -5.5930    -1.1880    -0.6750 ca         1 97B      -0.086000
     31 C6          -5.4840    -2.5250    -1.0030 ca         1 97B       0.128000
     32 CL1         -6.9090    -3.4970    -1.0850 cl         1 97B      -0.189000
     33 C11         -5.6030     1.2810     0.8750 ca         1 97B      -0.228900
     34 C26         -6.7060     2.1150     0.7450 ca         1 97B       0.226500
     35 F2          -6.9330     2.6910    -0.4380 f          1 97B      -0.161500
     36 C27         -7.5920     2.3470     1.7790 ca         1 97B      -0.176000
     37 C28         -7.3630     1.7300     2.9990 ca         1 97B      -0.046000
     38 C29         -6.2730     0.8910     3.1840 ca         1 97B      -0.176000
     39 C30         -5.4230     0.6870     2.1180 ca         1 97B       0.226500
     40 F1          -4.3560    -0.1060     2.2750 f          1 97B      -0.161500
     41 H24          6.4440     0.6420    -1.4010 h1         1 97B       0.063700
     42 H24A         7.4500     2.0870    -1.4580 h1         1 97B       0.063700
     43 H23          8.3520    -0.8310    -1.5750 h1         1 97B       0.040950
     44 H23A         8.3900     0.3530    -2.8880 h1         1 97B       0.040950
     45 H25         10.7520     0.1250    -3.1950 h1         1 97B       0.032033
     46 H25A        11.8380     0.3530    -1.8240 h1         1 97B       0.032033
     47 H25B        10.8440    -1.1090    -1.9290 h1         1 97B       0.032033
     48 H22          9.9220    -0.4410     0.3800 h1         1 97B       0.040950
     49 H22A        10.9700     0.9800     0.2970 h1         1 97B       0.040950
     50 H21          9.0430     2.4840     0.4450 h1         1 97B       0.063700
     51 H21A         9.0260     1.3560     1.8010 h1         1 97B       0.063700
     52 H18          5.4120    -1.9180     1.5960 ha         1 97B       0.124500
     53 H19          3.0650    -2.3670     1.1350 ha         1 97B       0.133500
     54 H16          4.9640     2.0230    -0.0250 ha         1 97B       0.124500
     55 H15          2.6140     1.5980    -0.4510 ha         1 97B       0.133500
     56 HN4          1.0900    -1.7170     0.3860 hn         1 97B       0.512000
     57 H12         -0.5590     2.8060    -1.5620 h4         1 97B       0.030100
     58 H8          -2.8840     2.7990    -2.2680 h1         1 97B       0.067200
     59 H8A         -3.5950     1.2290    -2.6280 h1         1 97B       0.067200
     60 H4          -2.1500    -2.7490    -1.3780 ha         1 97B       0.137000
     61 H5          -4.1620    -4.1500    -1.4970 ha         1 97B       0.135000
     62 H1          -6.5650    -0.7700    -0.4510 ha         1 97B       0.137000
     63 H27         -8.4440     2.9960     1.6290 ha         1 97B       0.140500
     64 H28         -8.0450     1.9040     3.8200 ha         1 97B       0.124000
     65 H29         -6.0850     0.4110     4.1340 ha         1 97B       0.140500
@<TRIPOS>BOND
     1     1     2 2   
     2     2     3 1   
     3     2    10 1   
     4     3     4 1   
     5     3     9 1   
     6     4     5 1   
     7     4    41 1   
     8     4    42 1   
     9     5     6 1   
    10     5    43 1   
    11     5    44 1   
    12     6     7 1   
    13     6     8 1   
    14     7    45 1   
    15     7    46 1   
    16     7    47 1   
    17     8     9 1   
    18     8    48 1   
    19     8    49 1   
    20     9    50 1   
    21     9    51 1   
    22    10    11 ar  
    23    10    13 ar  
    24    11    12 ar  
    25    11    52 1   
    26    12    15 ar  
    27    12    53 1   
    28    13    14 ar  
    29    13    54 1   
    30    14    15 ar  
    31    14    55 1   
    32    15    16 1   
    33    16    17 1   
    34    16    56 1   
    35    17    18 ar  
    36    17    19 ar  
    37    18    22 ar  
    38    19    20 ar  
    39    20    21 ar  
    40    20    57 1   
    41    21    22 ar  
    42    21    23 1   
    43    22    27 1   
    44    23    24 1   
    45    23    58 1   
    46    23    59 1   
    47    24    25 2   
    48    25    26 1   
    49    25    33 1   
    50    26    27 ar  
    51    26    30 ar  
    52    27    28 ar  
    53    28    29 ar  
    54    28    60 1   
    55    29    31 ar  
    56    29    61 1   
    57    30    31 ar  
    58    30    62 1   
    59    31    32 1   
    60    33    34 ar  
    61    33    39 ar  
    62    34    35 1   
    63    34    36 ar  
    64    36    37 ar  
    65    36    63 1   
    66    37    38 ar  
    67    37    64 1   
    68    38    39 ar  
    69    38    65 1   
    70    39    40 1   
@<TRIPOS>SUBSTRUCTURE
     1 97B         1 TEMP              0 ****  ****    0 ROOT
