@<TRIPOS>MOLECULE
97C
   43    42     1     0     0
SMALL
No Charge or Current Charge


@<TRIPOS>ATOM
      1 C15         -0.0750     9.7350     8.3870 c3         1 97C       0.158600
      2 C10          3.0820    13.1940     7.3560 c3         1 97C      -0.142400
      3 C07          2.4240    16.9320     8.4790 c3         1 97C      -0.088100
      4 C08          2.7510    15.7460     7.5500 c3         1 97C      -0.076400
      5 C09          2.7120    14.3830     8.2740 c3         1 97C      -0.067400
      6 C11          2.9600    11.8640     8.1020 c          1 97C       0.597100
      7 C14          1.4030    10.1100     8.6740 c3         1 97C       0.126600
      8 C17         -1.0230    11.2910    10.0320 c3         1 97C       0.154600
      9 C18         -2.0410    12.4490    10.1280 c3         1 97C      -0.077400
     10 C19         -1.5880    13.8140     9.5350 c3         1 97C      -0.111400
     11 C20         -1.7530    13.9850     7.9990 c3         1 97C       0.185300
     12 C22         -1.4870    15.4290     7.4980 c3         1 97C      -0.080400
     13 C23         -2.5020    16.4850     7.9860 c3         1 97C      -0.089100
     14 O12          3.8400    11.4020     8.8160 o          1 97C      -0.495000
     15 O13          1.7200    11.3080     7.9400 os         1 97C      -0.443100
     16 O16         -0.9570    10.8530     8.6640 os         1 97C      -0.467000
     17 O21         -0.8490    13.1200     7.3190 oh         1 97C      -0.689000
     18 H1          -0.3520     8.8620     8.9930 h1         1 97C       0.058200
     19 H2          -0.1630     9.4420     7.3320 h1         1 97C       0.058200
     20 H3           2.3790    13.1930     6.5140 hc         1 97C       0.081200
     21 H4           4.1110    13.3160     7.0020 hc         1 97C       0.081200
     22 H5           2.4440    17.8730     7.9180 hc         1 97C       0.032700
     23 H6           1.4280    16.8170     8.9230 hc         1 97C       0.032700
     24 H7           3.1580    17.0010     9.2910 hc         1 97C       0.032700
     25 H8           2.0350    15.7360     6.7190 hc         1 97C       0.038200
     26 H9           3.7460    15.8990     7.1140 hc         1 97C       0.038200
     27 H10          3.4020    14.4060     9.1280 hc         1 97C       0.051200
     28 H11          1.7070    14.2240     8.6830 hc         1 97C       0.051200
     29 H12          2.0500     9.2800     8.3600 h1         1 97C       0.054200
     30 H13          1.5470    10.2560     9.7520 h1         1 97C       0.054200
     31 H14         -0.0480    11.6420    10.3940 h1         1 97C       0.027200
     32 H15         -1.3550    10.4680    10.6780 h1         1 97C       0.027200
     33 H16         -2.2490    12.6030    11.1930 hc         1 97C       0.049700
     34 H17         -2.9940    12.1420     9.6770 hc         1 97C       0.049700
     35 H18         -0.5490    14.0170     9.8240 hc         1 97C       0.046700
     36 H19         -2.1920    14.5830    10.0290 hc         1 97C       0.046700
     37 H20         -2.7840    13.7170     7.7330 h1         1 97C       0.023700
     38 H21         -0.4770    15.7380     7.7910 hc         1 97C       0.049200
     39 H22         -1.5050    15.4260     6.4010 hc         1 97C       0.049200
     40 H23         -2.3150    17.4460     7.4910 hc         1 97C       0.031033
     41 H24         -3.5280    16.1760     7.7520 hc         1 97C       0.031033
     42 H25         -2.4230    16.6460     9.0670 hc         1 97C       0.031033
     43 H26         -0.8500    12.2650     7.8250 ho         1 97C       0.476000
@<TRIPOS>BOND
     1     1     7 1   
     2     1    16 1   
     3     1    18 1   
     4     1    19 1   
     5     2     5 1   
     6     2     6 1   
     7     2    20 1   
     8     2    21 1   
     9     3     4 1   
    10     3    22 1   
    11     3    23 1   
    12     3    24 1   
    13     4     5 1   
    14     4    25 1   
    15     4    26 1   
    16     5    27 1   
    17     5    28 1   
    18     6    14 2   
    19     6    15 1   
    20     7    15 1   
    21     7    29 1   
    22     7    30 1   
    23     8     9 1   
    24     8    16 1   
    25     8    31 1   
    26     8    32 1   
    27     9    10 1   
    28     9    33 1   
    29     9    34 1   
    30    10    11 1   
    31    10    35 1   
    32    10    36 1   
    33    11    12 1   
    34    11    17 1   
    35    11    37 1   
    36    12    13 1   
    37    12    38 1   
    38    12    39 1   
    39    13    40 1   
    40    13    41 1   
    41    13    42 1   
    42    17    43 1   
@<TRIPOS>SUBSTRUCTURE
     1 97C         1 TEMP              0 ****  ****    0 ROOT
