@<TRIPOS>MOLECULE
97C
   43    42     1     0     0
SMALL
bcc


@<TRIPOS>ATOM
      1 C15          0.0510     9.9100     8.4650 c3         1 97C       0.135400
      2 C10          2.7230    13.6600     7.7770 c3         1 97C      -0.142400
      3 C07          4.8220    16.9260     7.8430 c3         1 97C      -0.088100
      4 C08          3.8060    15.9000     7.3630 c3         1 97C      -0.076400
      5 C09          3.7420    14.6750     8.2670 c3         1 97C      -0.067400
      6 C11          2.6180    12.4370     8.6470 c          1 97C       0.646100
      7 C14          1.3850    10.4310     8.9520 c3         1 97C       0.103400
      8 C17         -1.4620    11.0870     9.8930 c3         1 97C       0.131400
      9 C18         -2.6530    12.0240     9.8700 c3         1 97C      -0.077400
     10 C19         -2.3920    13.4900     9.5080 c3         1 97C      -0.111400
     11 C20         -2.1960    13.8160     8.0270 c3         1 97C       0.162100
     12 C22         -2.2760    15.3160     7.7590 c3         1 97C      -0.080400
     13 C23         -3.6670    15.9100     7.9320 c3         1 97C      -0.089100
     14 O12          3.2680    12.2270     9.6390 o          1 97C      -0.544000
     15 O13          1.6950    11.5960     8.1880 os         1 97C      -0.419900
     16 O16         -1.0000    10.8440     8.5740 os         1 97C      -0.420600
     17 O21         -0.9490    13.3820     7.5300 oh         1 97C      -0.626800
     18 H1          -0.1820     8.9940     9.0230 h1         1 97C       0.058200
     19 H2           0.1160     9.6410     7.4090 h1         1 97C       0.058200
     20 H3           1.7270    14.1090     7.7090 hc         1 97C       0.081200
     21 H4           2.9650    13.3350     6.7600 hc         1 97C       0.081200
     22 H5           4.8600    17.7910     7.1810 hc         1 97C       0.032700
     23 H6           4.5760    17.2870     8.8440 hc         1 97C       0.032700
     24 H7           5.8260    16.4980     7.8860 hc         1 97C       0.032700
     25 H8           2.8160    16.3630     7.3060 hc         1 97C       0.038200
     26 H9           4.0530    15.5860     6.3440 hc         1 97C       0.038200
     27 H10          4.7310    14.2140     8.3200 hc         1 97C       0.051200
     28 H11          3.4930    14.9910     9.2840 hc         1 97C       0.051200
     29 H12          2.1470     9.6610     8.8010 h1         1 97C       0.054200
     30 H13          1.3600    10.6670    10.0180 h1         1 97C       0.054200
     31 H14         -0.6700    11.5160    10.5190 h1         1 97C       0.027200
     32 H15         -1.7560    10.1350    10.3520 h1         1 97C       0.027200
     33 H16         -3.0690    11.9990    10.8800 hc         1 97C       0.049700
     34 H17         -3.4300    11.6100     9.2190 hc         1 97C       0.049700
     35 H18         -1.5310    13.8680    10.0730 hc         1 97C       0.046700
     36 H19         -3.2560    14.0580     9.8620 hc         1 97C       0.046700
     37 H20         -3.0180    13.3340     7.4690 h1         1 97C       0.023700
     38 H21         -1.5630    15.8370     8.4070 hc         1 97C       0.049200
     39 H22         -1.9430    15.4910     6.7310 hc         1 97C       0.049200
     40 H23         -3.6780    16.9600     7.6420 hc         1 97C       0.031033
     41 H24         -4.3990    15.3900     7.3100 hc         1 97C       0.031033
     42 H25         -4.0170    15.8570     8.9630 hc         1 97C       0.031033
     43 H26         -0.8300    12.4520     7.7780 ho         1 97C       0.437000
@<TRIPOS>BOND
     1     1     7 1   
     2     1    16 1   
     3     1    18 1   
     4     1    19 1   
     5     2     5 1   
     6     2     6 1   
     7     2    20 1   
     8     2    21 1   
     9     3     4 1   
    10     3    22 1   
    11     3    23 1   
    12     3    24 1   
    13     4     5 1   
    14     4    25 1   
    15     4    26 1   
    16     5    27 1   
    17     5    28 1   
    18     6    14 2   
    19     6    15 1   
    20     7    15 1   
    21     7    29 1   
    22     7    30 1   
    23     8     9 1   
    24     8    16 1   
    25     8    31 1   
    26     8    32 1   
    27     9    10 1   
    28     9    33 1   
    29     9    34 1   
    30    10    11 1   
    31    10    35 1   
    32    10    36 1   
    33    11    12 1   
    34    11    17 1   
    35    11    37 1   
    36    12    13 1   
    37    12    38 1   
    38    12    39 1   
    39    13    40 1   
    40    13    41 1   
    41    13    42 1   
    42    17    43 1   
@<TRIPOS>SUBSTRUCTURE
     1 97C         1 TEMP              0 ****  ****    0 ROOT
