@<TRIPOS>MOLECULE
97E
   51    56     1     0     0
SMALL
bcc


@<TRIPOS>ATOM
      1 C4           5.3140    -0.5210    -0.0200 ca         1 97E       0.412300
      2 C5           6.4920    -1.2550     0.0300 ca         1 97E      -0.317600
      3 C6           7.6640    -0.5250     0.0970 ca         1 97E       0.431200
      4 N1           7.6760     0.8030     0.1180 nb         1 97E      -0.690000
      5 N3           5.3160     0.8070    -0.0070 nb         1 97E      -0.703000
      6 CAZ         -4.5560    -2.4690     0.1030 c          1 97E       0.810500
      7 NBB         -5.8280    -1.9680     0.1480 ns         1 97E      -0.454100
      8 CBC         -5.8200    -0.5950     0.1090 ca         1 97E       0.000600
      9 CBH         -6.8400     0.3270     0.1210 ca         1 97E      -0.092000
     10 CBG         -6.4730     1.6770     0.0540 ca         1 97E      -0.019000
     11 CBI         -7.4930     2.6720     0.0650 cg         1 97E       0.234800
     12 NBJ         -8.3170     3.4780     0.0730 n1         1 97E      -0.359800
     13 CBF         -5.1360     2.0730    -0.0280 ca         1 97E      -0.089000
     14 CBE         -4.1170     1.1320    -0.0410 ca         1 97E      -0.131000
     15 CBD         -4.4770    -0.2000     0.0340 ca         1 97E       0.032600
     16 NAY         -3.7250    -1.3540     0.0260 n          1 97E      -0.285200
     17 CAV         -2.3170    -1.4310     0.0000 ca         1 97E       0.069600
     18 CAW         -1.6780    -2.1300    -1.0160 ca         1 97E      -0.127000
     19 CAX         -0.2960    -2.1920    -1.0370 ca         1 97E      -0.085000
     20 CAU         -1.5770    -0.8050     0.9940 ca         1 97E      -0.127000
     21 CAT         -0.1940    -0.8570     0.9610 ca         1 97E      -0.085000
     22 CAS          0.4590    -1.5490    -0.0570 ca         1 97E      -0.127500
     23 CAI          1.9140    -1.6510    -0.1330 cc         1 97E       0.459000
     24 NAJ          2.5630    -2.7160    -0.5250 nd         1 97E      -0.345000
     25 NAK          3.8760    -2.4350    -0.5120 nd         1 97E      -0.340000
     26 CAL          4.0250    -1.2010    -0.1180 cc         1 97E       0.333500
     27 C2           6.4960     1.4010     0.0650 ca         1 97E       0.647900
     28 NAH          2.8030    -0.6570     0.1450 na         1 97E      -0.244800
     29 CAC          2.4930     0.6590     0.5730 ca         1 97E       0.009800
     30 CAB          1.9530     1.5690    -0.3240 ca         1 97E       0.043400
     31 CLA          1.7170     1.1130    -1.9690 cl         1 97E      -0.074400
     32 CAG          1.6130     2.8440     0.0980 ca         1 97E      -0.117000
     33 CAF          1.8270     3.2040     1.4190 ca         1 97E      -0.109000
     34 CAE          2.3770     2.2980     2.3170 ca         1 97E      -0.122000
     35 CAD          2.7050     1.0220     1.8930 ca         1 97E      -0.103000
     36 H1           6.4980    -2.3350     0.0220 ha         1 97E       0.178000
     37 H2           8.6230    -1.0280     0.1400 h4         1 97E       0.031100
     38 H3          -6.6460    -2.5540     0.2130 hn         1 97E       0.361500
     39 H4          -7.8780     0.0280     0.1780 ha         1 97E       0.154000
     40 H5          -4.8910     3.1250    -0.0840 ha         1 97E       0.148000
     41 H6          -3.0840     1.4420    -0.1080 ha         1 97E       0.154000
     42 H7          -2.2510    -2.6040    -1.8010 ha         1 97E       0.150000
     43 H8           0.2010    -2.7240    -1.8370 ha         1 97E       0.150500
     44 H9          -2.0760    -0.2870     1.8020 ha         1 97E       0.150000
     45 H10          0.3610    -0.3790     1.7570 ha         1 97E       0.150500
     46 H11          6.4920     2.4850     0.0780 h5         1 97E       0.053100
     47 H12          1.1870     3.5500    -0.6020 ha         1 97E       0.153000
     48 H13          1.5620     4.2010     1.7450 ha         1 97E       0.142000
     49 H14          2.5420     2.5810     3.3470 ha         1 97E       0.144000
     50 H15          3.1240     0.2990     2.5810 ha         1 97E       0.150000
     51 OBA         -4.2050    -3.6270     0.1310 o          1 97E      -0.605500
@<TRIPOS>BOND
     1     1     2 ar  
     2     1     5 ar  
     3     1    26 1   
     4     2     3 ar  
     5     2    36 1   
     6     3     4 ar  
     7     3    37 1   
     8     4    27 ar  
     9     5    27 ar  
    10     6     7 1   
    11     6    16 1   
    12     6    51 2   
    13     7     8 1   
    14     7    38 1   
    15     8     9 ar  
    16     8    15 ar  
    17     9    10 ar  
    18     9    39 1   
    19    10    11 1   
    20    10    13 ar  
    21    11    12 3   
    22    13    14 ar  
    23    13    40 1   
    24    14    15 ar  
    25    14    41 1   
    26    15    16 1   
    27    16    17 1   
    28    17    18 ar  
    29    17    20 ar  
    30    18    19 ar  
    31    18    42 1   
    32    19    22 ar  
    33    19    43 1   
    34    20    21 ar  
    35    20    44 1   
    36    21    22 ar  
    37    21    45 1   
    38    22    23 1   
    39    23    24 2   
    40    23    28 1   
    41    24    25 1   
    42    25    26 2   
    43    26    28 1   
    44    27    46 1   
    45    28    29 1   
    46    29    30 ar  
    47    29    35 ar  
    48    30    31 1   
    49    30    32 ar  
    50    32    33 ar  
    51    32    47 1   
    52    33    34 ar  
    53    33    48 1   
    54    34    35 ar  
    55    34    49 1   
    56    35    50 1   
@<TRIPOS>SUBSTRUCTURE
     1 97E         1 TEMP              0 ****  ****    0 ROOT
