@<TRIPOS>MOLECULE
97E
   51    56     1     0     0
SMALL
No Charge or Current Charge


@<TRIPOS>ATOM
      1 C4           5.4070    -0.5430     0.2840 ca         1 97E       0.084000
      2 C5           6.6180    -1.2140    -0.0120 ca         1 97E      -0.169000
      3 C6           7.8280    -0.5170     0.1460 ca         1 97E       0.102900
      4 N1           7.8540     0.7610     0.5700 nb         1 97E      -0.164000
      5 N3           5.4480     0.7420     0.7110 nb         1 97E      -0.177000
      6 CAZ         -4.6990    -2.4510    -0.4710 c          1 97E       0.601000
      7 NBB         -5.9410    -1.9180    -0.2800 ns         1 97E      -0.500600
      8 CBC         -5.9210    -0.5660     0.0640 ca         1 97E       0.000600
      9 CBH         -6.9640     0.3270     0.3200 ca         1 97E      -0.074000
     10 CBG         -6.6160     1.6680     0.6050 ca         1 97E      -0.019000
     11 CBI         -7.6470     2.6330     0.8750 cg         1 97E       0.324000
     12 NBJ         -8.4910     3.4100     1.0910 n1         1 97E      -0.449000
     13 CBF         -5.2530     2.0680     0.6030 ca         1 97E      -0.071000
     14 CBE         -4.2220     1.1390     0.3350 ca         1 97E      -0.113000
     15 CBD         -4.5870    -0.1960     0.0920 ca         1 97E       0.032600
     16 NAY         -3.8170    -1.3690    -0.2450 n          1 97E      -0.218200
     17 CAV         -2.3780    -1.4350    -0.1790 ca         1 97E       0.069600
     18 CAW         -1.6680    -2.3060    -1.0280 ca         1 97E      -0.109000
     19 CAX         -0.2660    -2.3830    -0.9760 ca         1 97E      -0.067000
     20 CAU         -1.6480    -0.6800     0.7620 ca         1 97E      -0.109000
     21 CAT         -0.2460    -0.7580     0.8190 ca         1 97E      -0.067000
     22 CAS          0.4690    -1.5850    -0.0740 ca         1 97E      -0.127500
     23 CAI          1.9370    -1.7060    -0.0190 cc         1 97E       0.459000
     24 NAJ          2.6250    -2.7810    -0.3770 nd         1 97E      -0.345000
     25 NAK          3.9700    -2.4950    -0.2720 nd         1 97E      -0.340000
     26 CAL          4.1070    -1.2380     0.1310 cc         1 97E       0.333500
     27 C2           6.6580     1.3270     0.8310 ca         1 97E       0.121900
     28 NAH          2.8390    -0.7350     0.3570 na         1 97E      -0.244800
     29 CAC          2.5260     0.6240     0.4480 ca         1 97E       0.009800
     30 CAB          2.2180     1.3900    -0.7010 ca         1 97E       0.135000
     31 ClA          2.2340     0.6720    -2.3140 cl         1 97E      -0.166000
     32 CAG          1.9010     2.7530    -0.5740 ca         1 97E      -0.099000
     33 CAF          1.8910     3.3620     0.6930 ca         1 97E      -0.091000
     34 CAE          2.2030     2.6080     1.8360 ca         1 97E      -0.104000
     35 CAD          2.5200     1.2440     1.7140 ca         1 97E      -0.085000
     36 H1           6.6270    -2.2460    -0.3560 ha         1 97E       0.160000
     37 H2           8.7870    -0.9850    -0.0680 h4         1 97E       0.031100
     38 H3          -6.7840    -2.4800    -0.3540 hn         1 97E       0.475000
     39 H4          -8.0020     0.0020     0.2940 ha         1 97E       0.136000
     40 H5          -4.9930     3.1070     0.7980 ha         1 97E       0.130000
     41 H6          -3.1890     1.4710     0.2910 ha         1 97E       0.136000
     42 H7          -2.1980    -2.9130    -1.7580 ha         1 97E       0.132000
     43 H8           0.2500    -3.0570    -1.6570 ha         1 97E       0.132500
     44 H9          -2.1610    -0.0670     1.4960 ha         1 97E       0.132000
     45 H10          0.2730    -0.1890     1.5840 ha         1 97E       0.132500
     46 H11          6.6700     2.3600     1.1740 h5         1 97E       0.053100
     47 H12          1.6650     3.3380    -1.4590 ha         1 97E       0.135000
     48 H13          1.6460     4.4180     0.7870 ha         1 97E       0.124000
     49 H14          2.1980     3.0790     2.8160 ha         1 97E       0.126000
     50 H15          2.7610     0.6660     2.6040 ha         1 97E       0.132000
     51 OBA         -4.4410    -3.6140    -0.7350 o          1 97E      -0.530000
@<TRIPOS>BOND
     1     1     2 ar  
     2     1     5 ar  
     3     1    26 1   
     4     2     3 ar  
     5     2    36 1   
     6     3     4 ar  
     7     3    37 1   
     8     4    27 ar  
     9     5    27 ar  
    10     6     7 1   
    11     6    16 1   
    12     6    51 2   
    13     7     8 1   
    14     7    38 1   
    15     8     9 ar  
    16     8    15 ar  
    17     9    10 ar  
    18     9    39 1   
    19    10    11 1   
    20    10    13 ar  
    21    11    12 3   
    22    13    14 ar  
    23    13    40 1   
    24    14    15 ar  
    25    14    41 1   
    26    15    16 1   
    27    16    17 1   
    28    17    18 ar  
    29    17    20 ar  
    30    18    19 ar  
    31    18    42 1   
    32    19    22 ar  
    33    19    43 1   
    34    20    21 ar  
    35    20    44 1   
    36    21    22 ar  
    37    21    45 1   
    38    22    23 1   
    39    23    24 2   
    40    23    28 1   
    41    24    25 1   
    42    25    26 2   
    43    26    28 1   
    44    27    46 1   
    45    28    29 1   
    46    29    30 ar  
    47    29    35 ar  
    48    30    31 1   
    49    30    32 ar  
    50    32    33 ar  
    51    32    47 1   
    52    33    34 ar  
    53    33    48 1   
    54    34    35 ar  
    55    34    49 1   
    56    35    50 1   
@<TRIPOS>SUBSTRUCTURE
     1 97E         1 TEMP              0 ****  ****    0 ROOT
