@<TRIPOS>MOLECULE
97F
   49    52     1     0     0
SMALL
No Charge or Current Charge


@<TRIPOS>ATOM
      1 C10         -8.3160    -6.7750    -0.1950 ca         1 97F      -0.174500
      2 C13         -6.1180    -8.3020    -1.1160 ca         1 97F      -0.087000
      3 C15         -7.3210    -7.2240     0.7100 ca         1 97F       0.129100
      4 C17         -7.4920    -5.6420     2.5390 ca         1 97F       0.124100
      5 C20         -7.8310    -3.0390     3.5460 ca         1 97F      -0.137000
      6 C21         -8.3150    -4.1410     4.2710 ca         1 97F      -0.077000
      7 C22         -8.1410    -5.4420     3.7680 ca         1 97F      -0.149000
      8 C28        -11.1220    -2.8650    -0.3880 cc         1 97F       0.362800
      9 C01        -12.5880    -8.3530     3.3880 c3         1 97F      -0.104100
     10 C02        -11.9540    -7.0240     3.8600 c3         1 97F       0.153500
     11 C03        -12.4880    -6.5850     5.2750 c          1 97F       0.580100
     12 C07        -11.3180    -5.6750     1.7790 cc         1 97F       0.430000
     13 C08        -10.2870    -6.4520     1.3390 cd         1 97F      -0.293000
     14 C09         -9.4630    -5.9710     0.2580 cd         1 97F       0.432500
     15 C11         -8.1690    -7.0700    -1.5690 ca         1 97F      -0.066000
     16 C12         -7.0800    -7.8320    -2.0250 ca         1 97F      -0.122000
     17 C14         -6.2410    -7.9950     0.2490 ca         1 97F      -0.124000
     18 C18         -6.9940    -4.5370     1.8190 ca         1 97F      -0.149000
     19 C19         -7.1670    -3.2360     2.3220 ca         1 97F      -0.077000
     20 C25        -11.5270    -4.4430     1.1120 cc         1 97F      -0.177000
     21 N04        -12.2460    -7.4250     6.3110 nt         1 97F      -0.606000
     22 N06        -12.1650    -5.9830     2.8140 nu         1 97F      -0.924200
     23 N23         -9.6550    -4.8230    -0.4110 nc         1 97F      -0.501800
     24 N24        -10.7200    -4.0900     0.0820 na         1 97F       0.146000
     25 N26        -12.4160    -3.4790     1.2910 nd         1 97F      -0.090000
     26 N27        -12.1620    -2.4870     0.3490 nd         1 97F      -0.374700
     27 O16         -7.3720    -6.9280     2.0560 os         1 97F      -0.263200
     28 H131        -5.2770    -8.8940    -1.4690 ha         1 97F       0.119000
     29 H201        -7.9660    -2.0310     3.9330 ha         1 97F       0.116000
     30 H211        -8.8260    -3.9870     5.2200 ha         1 97F       0.116000
     31 H221        -8.5200    -6.2950     4.3250 ha         1 97F       0.125000
     32 H012       -12.3800    -9.1610     4.0980 hc         1 97F       0.056033
     33 H013       -13.6750    -8.2500     3.2930 hc         1 97F       0.056033
     34 H011       -12.1850    -8.6520     2.4130 hc         1 97F       0.056033
     35 H021       -10.8770    -7.1950     3.9910 h1         1 97F       0.064700
     36 H081       -10.0690    -7.4040     1.8020 ha         1 97F       0.137000
     37 H111        -8.9090    -6.7190    -2.2860 ha         1 97F       0.127000
     38 H121        -6.9830    -8.0610    -3.0840 ha         1 97F       0.121000
     39 H141        -5.4900    -8.3450     0.9520 ha         1 97F       0.132000
     40 H181        -6.4820    -4.6810     0.8710 ha         1 97F       0.125000
     41 H191        -6.7900    -2.3820     1.7630 ha         1 97F       0.116000
     42 H292       -11.0240    -1.1430    -1.6810 hc         1 97F       0.061367
     43 H291        -9.4500    -1.8680    -1.2980 hc         1 97F       0.061367
     44 H293       -10.5410    -2.6680    -2.4480 hc         1 97F       0.061367
     45 H042       -12.5730    -7.1770     7.2330 hn         1 97F       0.317000
     46 H041       -11.7430    -8.2880     6.1620 hn         1 97F       0.317000
     47 H061       -12.8000    -5.2170     3.0550 hn         1 97F       0.528000
     48 C29        -10.5010    -2.0920    -1.5170 c3         1 97F      -0.094400
     49 O05        -13.0960    -5.5420     5.4750 o          1 97F      -0.583100
@<TRIPOS>BOND
     1     1     3 ar  
     2     1    14 1   
     3     1    15 ar  
     4     2    16 ar  
     5     2    17 ar  
     6     2    28 1   
     7     3    17 ar  
     8     3    27 1   
     9     4     7 ar  
    10     4    18 ar  
    11     4    27 1   
    12     5     6 ar  
    13     5    19 ar  
    14     5    29 1   
    15     6     7 ar  
    16     6    30 1   
    17     7    31 1   
    18     8    24 1   
    19     8    26 2   
    20     8    48 1   
    21     9    10 1   
    22     9    32 1   
    23     9    33 1   
    24     9    34 1   
    25    10    11 1   
    26    10    22 1   
    27    10    35 1   
    28    11    21 1   
    29    11    49 2   
    30    12    13 2   
    31    12    20 1   
    32    12    22 1   
    33    13    14 1   
    34    13    36 1   
    35    14    23 2   
    36    15    16 ar  
    37    15    37 1   
    38    16    38 1   
    39    17    39 1   
    40    18    19 ar  
    41    18    40 1   
    42    19    41 1   
    43    20    24 1   
    44    20    25 2   
    45    21    45 1   
    46    21    46 1   
    47    22    47 1   
    48    23    24 1   
    49    25    26 1   
    50    42    48 1   
    51    43    48 1   
    52    44    48 1   
@<TRIPOS>SUBSTRUCTURE
     1 97F         1 TEMP              0 ****  ****    0 ROOT
