@<TRIPOS>MOLECULE
97F
   49    52     1     0     0
SMALL
abcg2


@<TRIPOS>ATOM
      1 C10         -8.2710    -6.6820     0.0900 ca         1 97F      -0.174500
      2 C13         -5.9400    -8.0790    -0.5550 ca         1 97F      -0.087000
      3 C15         -7.3410    -7.0150     1.0760 ca         1 97F       0.129100
      4 C17         -7.5450    -5.3820     2.7720 ca         1 97F       0.124100
      5 C20         -7.5620    -2.7730     3.7270 ca         1 97F      -0.137000
      6 C21         -8.0980    -3.8040     4.4910 ca         1 97F      -0.077000
      7 C22         -8.0940    -5.1060     4.0190 ca         1 97F      -0.149000
      8 C28        -11.3430    -3.1150    -0.5840 cc         1 97F       0.362800
      9 C01        -13.7900    -7.7350     3.9300 c3         1 97F      -0.104100
     10 C02        -12.4320    -7.3740     3.3390 c3         1 97F       0.153500
     11 C03        -11.4440    -7.0830     4.4770 c          1 97F       0.580100
     12 C07        -11.6090    -5.8290     1.6330 cc         1 97F       0.430000
     13 C08        -10.4150    -6.4710     1.3790 cd         1 97F      -0.293000
     14 C09         -9.5220    -5.9550     0.4060 cd         1 97F       0.432500
     15 C11         -7.9990    -7.0450    -1.2270 ca         1 97F      -0.066000
     16 C12         -6.8460    -7.7430    -1.5510 ca         1 97F      -0.122000
     17 C14         -6.1820    -7.7050     0.7590 ca         1 97F      -0.124000
     18 C18         -7.0000    -4.3640     1.9990 ca         1 97F      -0.149000
     19 C19         -7.0150    -3.0630     2.4860 ca         1 97F      -0.077000
     20 C25        -11.8230    -4.6350     0.8780 cc         1 97F      -0.177000
     21 N04        -10.7160    -8.1370     4.8660 nt         1 97F      -0.606000
     22 N06        -12.5650    -6.2310     2.4760 nu         1 97F      -0.924200
     23 N23         -9.7220    -4.8790    -0.3030 nc         1 97F      -0.501800
     24 N24        -10.8770    -4.2610    -0.0250 na         1 97F       0.146000
     25 N26        -12.8080    -3.7730     0.8720 nd         1 97F      -0.090000
     26 N27        -12.5000    -2.8300    -0.0410 nd         1 97F      -0.374700
     27 O16         -7.5620    -6.6920     2.3860 os         1 97F      -0.263200
     28 H131        -5.0380    -8.6240    -0.7990 ha         1 97F       0.119000
     29 H201        -7.5710    -1.7560     4.0970 ha         1 97F       0.116000
     30 H211        -8.5290    -3.5940     5.4610 ha         1 97F       0.116000
     31 H221        -8.5140    -5.9080     4.6100 ha         1 97F       0.125000
     32 H012       -13.7040    -8.6060     4.5770 hc         1 97F       0.056033
     33 H013       -14.1900    -6.9090     4.5200 hc         1 97F       0.056033
     34 H011       -14.4970    -7.9700     3.1360 hc         1 97F       0.056033
     35 H021       -12.0760    -8.2240     2.7480 h1         1 97F       0.064700
     36 H081       -10.1480    -7.3860     1.8870 ha         1 97F       0.137000
     37 H111        -8.7130    -6.7910    -2.0000 ha         1 97F       0.127000
     38 H121        -6.6600    -8.0280    -2.5780 ha         1 97F       0.121000
     39 H141        -5.4740    -7.9430     1.5420 ha         1 97F       0.132000
     40 H181        -6.5610    -4.5690     1.0310 ha         1 97F       0.125000
     41 H191        -6.5900    -2.2720     1.8820 ha         1 97F       0.116000
     42 H292       -11.1960    -1.4780    -1.9040 hc         1 97F       0.061367
     43 H291        -9.6410    -2.0330    -1.2720 hc         1 97F       0.061367
     44 H293       -10.4630    -2.9650    -2.5180 hc         1 97F       0.061367
     45 H042       -10.0950    -8.0670     5.6560 hn         1 97F       0.317000
     46 H041       -10.7900    -9.0340     4.4150 hn         1 97F       0.317000
     47 H061       -13.3550    -5.6190     2.6130 hn         1 97F       0.528000
     48 C29        -10.6200    -2.3570    -1.6270 c3         1 97F      -0.094400
     49 O05        -11.3780    -5.9780     4.9870 o          1 97F      -0.583100
@<TRIPOS>BOND
     1     1     3 ar  
     2     1    14 1   
     3     1    15 ar  
     4     2    16 ar  
     5     2    17 ar  
     6     2    28 1   
     7     3    17 ar  
     8     3    27 1   
     9     4     7 ar  
    10     4    18 ar  
    11     4    27 1   
    12     5     6 ar  
    13     5    19 ar  
    14     5    29 1   
    15     6     7 ar  
    16     6    30 1   
    17     7    31 1   
    18     8    24 1   
    19     8    26 2   
    20     8    48 1   
    21     9    10 1   
    22     9    32 1   
    23     9    33 1   
    24     9    34 1   
    25    10    11 1   
    26    10    22 1   
    27    10    35 1   
    28    11    21 1   
    29    11    49 2   
    30    12    13 2   
    31    12    20 1   
    32    12    22 1   
    33    13    14 1   
    34    13    36 1   
    35    14    23 2   
    36    15    16 ar  
    37    15    37 1   
    38    16    38 1   
    39    17    39 1   
    40    18    19 ar  
    41    18    40 1   
    42    19    41 1   
    43    20    24 1   
    44    20    25 2   
    45    21    45 1   
    46    21    46 1   
    47    22    47 1   
    48    23    24 1   
    49    25    26 1   
    50    42    48 1   
    51    43    48 1   
    52    44    48 1   
@<TRIPOS>SUBSTRUCTURE
     1 97F         1 TEMP              0 ****  ****    0 ROOT
