@<TRIPOS>MOLECULE
97H
   29    31     1     0     0
SMALL
bcc


@<TRIPOS>ATOM
      1 CAG         -2.4340     0.8720    -0.2860 ca         1 97H      -0.147000
      2 CAB         -3.8300     0.8950    -0.2450 ca         1 97H       0.153600
      3 NAA         -4.5270     2.0190    -0.6190 nv         1 97H      -0.827200
      4 CAC         -4.5030    -0.2760     0.1330 ca         1 97H      -0.180000
      5 CAD         -3.7960    -1.4200     0.4520 ca         1 97H      -0.090000
      6 CAE         -2.4090    -1.4450     0.3990 ca         1 97H      -0.161000
      7 CAF         -1.7300    -0.2860     0.0250 ca         1 97H      -0.109900
      8 CAH         -0.2560    -0.2510    -0.0370 cc         1 97H       0.560500
      9 NAI          0.3730     0.8510     0.1770 nd         1 97H      -0.632100
     10 CAJ          1.7440     0.8350     0.1130 ca         1 97H       0.191400
     11 CAO          2.4420     2.0300     0.3370 ca         1 97H      -0.125000
     12 CAN          3.8180     2.0490     0.2900 ca         1 97H      -0.093000
     13 CAM          4.5410     0.8810     0.0190 ca         1 97H      -0.153000
     14 CAL          3.8710    -0.3030    -0.2050 ca         1 97H      -0.057000
     15 CAK          2.4750    -0.3340    -0.1580 ca         1 97H      -0.205600
     16 CAP          1.7490    -1.5720    -0.4040 c          1 97H       0.721100
     17 OAQ          2.2510    -2.6500    -0.6650 o          1 97H      -0.614500
     18 NAR          0.3820    -1.4230    -0.3270 ns         1 97H      -0.493400
     19 H1          -1.8910     1.7630    -0.5760 ha         1 97H       0.154000
     20 H2          -4.0310     2.8930    -0.5540 hn         1 97H       0.399300
     21 H3          -5.4710     2.0900    -0.2770 hn         1 97H       0.399300
     22 H4          -5.5860    -0.2800     0.1760 ha         1 97H       0.134000
     23 H5          -4.3350    -2.3080     0.7560 ha         1 97H       0.134000
     24 H6          -1.8830    -2.3460     0.6870 ha         1 97H       0.135000
     25 H7           1.8800     2.9300     0.5500 ha         1 97H       0.149000
     26 H8           4.3470     2.9760     0.4670 ha         1 97H       0.134000
     27 H9           5.6210     0.9090    -0.0150 ha         1 97H       0.137000
     28 H10          4.4200    -1.2100    -0.4180 ha         1 97H       0.153000
     29 H11         -0.1730    -2.2420    -0.5440 hn         1 97H       0.333500
@<TRIPOS>BOND
     1     1     2 ar  
     2     1     7 ar  
     3     1    19 1   
     4     2     3 1   
     5     2     4 ar  
     6     3    20 1   
     7     3    21 1   
     8     4     5 ar  
     9     4    22 1   
    10     5     6 ar  
    11     5    23 1   
    12     6     7 ar  
    13     6    24 1   
    14     7     8 1   
    15     8     9 2   
    16     8    18 1   
    17     9    10 1   
    18    10    11 ar  
    19    10    15 ar  
    20    11    12 ar  
    21    11    25 1   
    22    12    13 ar  
    23    12    26 1   
    24    13    14 ar  
    25    13    27 1   
    26    14    15 ar  
    27    14    28 1   
    28    15    16 1   
    29    16    17 2   
    30    16    18 1   
    31    18    29 1   
@<TRIPOS>SUBSTRUCTURE
     1 97H         1 TEMP              0 ****  ****    0 ROOT
