@<TRIPOS>MOLECULE
97H
   29    31     1     0     0
SMALL
No Charge or Current Charge


@<TRIPOS>ATOM
      1 CAG         -2.4870     0.9040    -0.2660 ca         1 97H      -0.129000
      2 CAB         -3.8900     0.8830    -0.2120 ca         1 97H       0.292000
      3 NAA         -4.6100     2.0180    -0.4790 nv         1 97H      -1.076000
      4 CAC         -4.5570    -0.3040     0.1180 ca         1 97H      -0.162000
      5 CAD         -3.8250    -1.4660     0.4040 ca         1 97H      -0.072000
      6 CAE         -2.4210    -1.4450     0.3500 ca         1 97H      -0.143000
      7 CAF         -1.7250    -0.2620    -0.0070 ca         1 97H      -0.109900
      8 CAH         -0.2490    -0.2130    -0.0330 cc         1 97H       0.560500
      9 NAI          0.3910     0.9450     0.1590 nd         1 97H      -0.632100
     10 CAJ          1.7920     0.8640     0.1020 ca         1 97H       0.191400
     11 CAO          2.5210     2.0500     0.3070 ca         1 97H      -0.107000
     12 CAN          3.9260     2.0530     0.2680 ca         1 97H      -0.075000
     13 CAM          4.6190     0.8590     0.0210 ca         1 97H      -0.135000
     14 CAL          3.9080    -0.3330    -0.1870 ca         1 97H      -0.039000
     15 CAK          2.4970    -0.3290    -0.1460 ca         1 97H      -0.205600
     16 CAP          1.7210    -1.5710    -0.3670 c          1 97H       0.578600
     17 OAQ          2.2210    -2.6600    -0.6010 o          1 97H      -0.539000
     18 NAR          0.3840    -1.4010    -0.2930 ns         1 97H      -0.426400
     19 H1          -1.9870     1.8340    -0.5240 ha         1 97H       0.136000
     20 H2          -4.1320     2.9120    -0.5760 hn         1 97H       0.454500
     21 H3          -5.6130     2.0370    -0.3040 hn         1 97H       0.454500
     22 H4          -5.6430    -0.3270     0.1620 ha         1 97H       0.116000
     23 H5          -4.3450    -2.3820     0.6740 ha         1 97H       0.116000
     24 H6          -1.8830    -2.3570     0.6030 ha         1 97H       0.117000
     25 H7           1.9900     2.9790     0.5000 ha         1 97H       0.131000
     26 H8           4.4740     2.9790     0.4290 ha         1 97H       0.116000
     27 H9           5.7070     0.8560    -0.0100 ha         1 97H       0.119000
     28 H10          4.4530    -1.2560    -0.3800 ha         1 97H       0.135000
     29 H11         -0.1750    -2.2210    -0.4610 hn         1 97H       0.333500
@<TRIPOS>BOND
     1     1     2 ar  
     2     1     7 ar  
     3     1    19 1   
     4     2     3 1   
     5     2     4 ar  
     6     3    20 1   
     7     3    21 1   
     8     4     5 ar  
     9     4    22 1   
    10     5     6 ar  
    11     5    23 1   
    12     6     7 ar  
    13     6    24 1   
    14     7     8 1   
    15     8     9 2   
    16     8    18 1   
    17     9    10 1   
    18    10    11 ar  
    19    10    15 ar  
    20    11    12 ar  
    21    11    25 1   
    22    12    13 ar  
    23    12    26 1   
    24    13    14 ar  
    25    13    27 1   
    26    14    15 ar  
    27    14    28 1   
    28    15    16 1   
    29    16    17 2   
    30    16    18 1   
    31    18    29 1   
@<TRIPOS>SUBSTRUCTURE
     1 97H         1 TEMP              0 ****  ****    0 ROOT
