@<TRIPOS>MOLECULE
97I
   86    89     1     0     0
SMALL
No Charge or Current Charge


@<TRIPOS>ATOM
      1 O1          22.3050    -9.0360   -13.9750 oh         1 97I      -0.686000
      2 O2          27.8980    -3.5980   -16.0300 oh         1 97I      -0.665000
      3 O3          26.0280    -1.0430   -11.5240 oh         1 97I      -0.660000
      4 O4          22.1990   -10.7190   -16.0810 oh         1 97I      -0.668000
      5 C5          25.3450    -6.4500   -15.6680 c6         1 97I      -0.014000
      6 C6          25.6140    -8.0420   -15.7000 c5         1 97I      -0.036000
      7 C7          24.7830    -6.1020   -14.1950 c6         1 97I      -0.044700
      8 C8          24.6890    -4.5390   -13.8730 c6         1 97I      -0.023000
      9 C9          24.2470    -8.7970   -15.4650 c5         1 97I      -0.067700
     10 C10         26.1520    -3.8760   -14.1940 c6         1 97I      -0.072700
     11 C11         26.6760    -5.6480   -16.0130 c6         1 97I      -0.075400
     12 C12         23.4950    -6.9450   -13.8420 c6         1 97I      -0.109400
     13 C13         24.5900   -10.2760   -15.9100 c5         1 97I      -0.078700
     14 C14         23.6230    -8.4830   -14.0710 c6         1 97I       0.187300
     15 C15         26.0560    -8.6520   -17.0920 c5         1 97I      -0.076400
     16 C16         26.6060    -4.1230   -15.7170 c6         1 97I       0.182300
     17 C17         26.3700    -2.3720   -13.6200 c6         1 97I      -0.023000
     18 C18         25.1470    -9.9070   -17.3250 c5         1 97I      -0.075400
     19 C19         24.4060    -4.3730   -12.3390 c6         1 97I      -0.070400
     20 C21         26.7090    -8.4840   -14.6350 c3         1 97I      -0.088100
     21 C22         23.5260    -3.8290   -14.6710 c3         1 97I      -0.083100
     22 C23         25.9620    -2.3600   -12.0930 c6         1 97I       0.174300
     23 C24         23.4480   -11.3690   -15.8610 c3         1 97I       0.207000
     24 C25         24.5560    -2.9260   -11.8160 c6         1 97I      -0.111400
     25 C26         27.8800    -1.9220   -13.6670 c3         1 97I      -0.081100
     26 C27         25.5820    -1.2930   -14.4400 c3         1 97I      -0.081100
     27 C28         23.4150   -12.0470   -14.4440 c3         1 97I      -0.092400
     28 C29         23.6160   -12.4510   -16.9630 c3         1 97I      -0.084100
     29 C30         22.2040   -12.9530   -14.0780 c3         1 97I      -0.027200
     30 C31         22.2560   -14.3520   -14.6680 c2         1 97I      -0.209200
     31 C32         23.0060   -15.3900   -14.2510 c2         1 97I      -0.127400
     32 C33         23.9850   -15.3560   -13.0870 c3         1 97I      -0.053400
     33 C34         22.9530   -16.7510   -14.9200 c3         1 97I      -0.053400
     34 H1          21.9490    -8.7540   -13.1030 ho         1 97I       0.450000
     35 H2          27.8550    -2.6350   -15.8540 ho         1 97I       0.443000
     36 H3          25.8170    -1.1380   -10.5710 ho         1 97I       0.440000
     37 H4          22.1490   -10.0460   -15.3490 ho         1 97I       0.467000
     38 H5          25.5470    -6.4480   -13.4920 hc         1 97I       0.045700
     39 H6          23.4810    -8.4250   -16.1530 hc         1 97I       0.071700
     40 H7          26.8610    -4.4790   -13.6090 hc         1 97I       0.049700
     41 H8          26.9440    -5.8070   -17.0660 hc         1 97I       0.055200
     42 H9          27.5230    -6.0270   -15.4370 hc         1 97I       0.055200
     43 H10         23.2330    -6.7980   -12.7880 hc         1 97I       0.045200
     44 H11         22.6300    -6.5830   -14.4070 hc         1 97I       0.045200
     45 H12         25.3930   -10.7130   -15.3120 hc         1 97I       0.047700
     46 H13         24.2620    -8.9080   -13.2850 h1         1 97I       0.033700
     47 H14         27.1120    -8.9470   -17.0770 hc         1 97I       0.044700
     48 H15         25.9860    -7.9610   -17.9350 hc         1 97I       0.044700
     49 H16         25.8750    -3.6550   -16.3870 h1         1 97I       0.031700
     50 H17         24.3340    -9.6660   -18.0210 hc         1 97I       0.047700
     51 H18         25.7160   -10.7280   -17.7770 hc         1 97I       0.047700
     52 H19         23.3880    -4.7080   -12.1010 hc         1 97I       0.039700
     53 H20         25.0810    -5.0190   -11.7600 hc         1 97I       0.039700
     54 H24         26.3830    -8.3880   -13.5950 hc         1 97I       0.034700
     55 H25         27.0110    -9.5290   -14.7480 hc         1 97I       0.034700
     56 H26         27.6530    -7.9440   -14.7300 hc         1 97I       0.034700
     57 H27         22.7110    -4.5070   -14.9350 hc         1 97I       0.035033
     58 H28         23.0410    -3.0300   -14.1040 hc         1 97I       0.035033
     59 H29         23.8690    -3.3640   -15.5980 hc         1 97I       0.035033
     60 H30         26.6750    -3.0080   -11.5620 h1         1 97I       0.025700
     61 H31         24.3780    -2.9330   -10.7310 hc         1 97I       0.045700
     62 H32         23.7850    -2.2660   -12.2300 hc         1 97I       0.045700
     63 H33         28.5520    -2.7360   -13.3670 hc         1 97I       0.036700
     64 H34         28.1900    -1.5650   -14.6540 hc         1 97I       0.036700
     65 H35         28.0870    -1.0810   -12.9950 hc         1 97I       0.036700
     66 H36         25.8900    -0.2770   -14.1650 hc         1 97I       0.036700
     67 H37         25.7560    -1.3980   -15.5170 hc         1 97I       0.036700
     68 H38         24.5030    -1.3380   -14.2740 hc         1 97I       0.036700
     69 H39         24.3330   -12.6340   -14.3200 hc         1 97I       0.038700
     70 H40         23.4810   -11.2730   -13.6730 hc         1 97I       0.038700
     71 H41         24.5500   -13.0080   -16.8230 hc         1 97I       0.040700
     72 H42         22.7870   -13.1640   -16.9570 hc         1 97I       0.040700
     73 H43         23.6270   -12.0080   -17.9650 hc         1 97I       0.040700
     74 H44         21.2640   -12.4600   -14.3550 hc         1 97I       0.040200
     75 H45         22.1640   -13.0330   -12.9840 hc         1 97I       0.040200
     76 H46         21.5700   -14.4890   -15.5060 ha         1 97I       0.178000
     77 H47         24.0240   -14.3800   -12.5910 hc         1 97I       0.036200
     78 H48         23.7120   -16.0950   -12.3240 hc         1 97I       0.036200
     79 H49         25.0020   -15.5880   -13.4250 hc         1 97I       0.036200
     80 H50         22.6390   -17.5270   -14.2120 hc         1 97I       0.036200
     81 H51         22.2470   -16.7660   -15.7580 hc         1 97I       0.036200
     82 H52         23.9360   -17.0350   -15.3150 hc         1 97I       0.036200
     83 C20         24.2910    -6.0360   -16.7810 c3         1 97I      -0.088100
     84 H21         23.2590    -6.2820   -16.5180 hc         1 97I       0.036367
     85 H22         24.3000    -4.9680   -17.0030 hc         1 97I       0.036367
     86 H23         24.4780    -6.5090   -17.7480 hc         1 97I       0.036367
@<TRIPOS>BOND
     1     1    14 1   
     2     1    34 1   
     3     2    16 1   
     4     2    35 1   
     5     3    22 1   
     6     3    36 1   
     7     4    23 1   
     8     4    37 1   
     9     5     6 1   
    10     5     7 1   
    11     5    11 1   
    12     5    83 1   
    13     6     9 1   
    14     6    15 1   
    15     6    20 1   
    16     7     8 1   
    17     7    12 1   
    18     7    38 1   
    19     8    10 1   
    20     8    19 1   
    21     8    21 1   
    22     9    13 1   
    23     9    14 1   
    24     9    39 1   
    25    10    16 1   
    26    10    17 1   
    27    10    40 1   
    28    11    16 1   
    29    11    41 1   
    30    11    42 1   
    31    12    14 1   
    32    12    43 1   
    33    12    44 1   
    34    13    18 1   
    35    13    23 1   
    36    13    45 1   
    37    14    46 1   
    38    15    18 1   
    39    15    47 1   
    40    15    48 1   
    41    16    49 1   
    42    17    22 1   
    43    17    25 1   
    44    17    26 1   
    45    18    50 1   
    46    18    51 1   
    47    19    24 1   
    48    19    52 1   
    49    19    53 1   
    50    20    54 1   
    51    20    55 1   
    52    20    56 1   
    53    21    57 1   
    54    21    58 1   
    55    21    59 1   
    56    22    24 1   
    57    22    60 1   
    58    23    27 1   
    59    23    28 1   
    60    24    61 1   
    61    24    62 1   
    62    25    63 1   
    63    25    64 1   
    64    25    65 1   
    65    26    66 1   
    66    26    67 1   
    67    26    68 1   
    68    27    29 1   
    69    27    69 1   
    70    27    70 1   
    71    28    71 1   
    72    28    72 1   
    73    28    73 1   
    74    29    30 1   
    75    29    74 1   
    76    29    75 1   
    77    30    31 2   
    78    30    76 1   
    79    31    32 1   
    80    31    33 1   
    81    32    77 1   
    82    32    78 1   
    83    32    79 1   
    84    33    80 1   
    85    33    81 1   
    86    33    82 1   
    87    83    84 1   
    88    83    85 1   
    89    83    86 1   
@<TRIPOS>SUBSTRUCTURE
     1 97I         1 TEMP              0 ****  ****    0 ROOT
