@<TRIPOS>MOLECULE
97I
   86    89     1     0     0
SMALL
abcg2


@<TRIPOS>ATOM
      1 O1          22.9260    -9.2900   -13.6120 oh         1 97I      -0.686000
      2 O2          27.5360    -3.4670   -16.1880 oh         1 97I      -0.665000
      3 O3          25.7100    -0.9950   -11.8070 oh         1 97I      -0.660000
      4 O4          22.6480   -10.8790   -15.8770 oh         1 97I      -0.668000
      5 C5          25.4110    -6.4850   -15.6070 c6         1 97I      -0.014000
      6 C6          25.8480    -7.9900   -15.5910 c5         1 97I      -0.036000
      7 C7          24.9470    -6.1260   -14.1730 c6         1 97I      -0.044700
      8 C8          24.6730    -4.6110   -13.9100 c6         1 97I      -0.023000
      9 C9          24.6180    -8.8620   -15.2450 c5         1 97I      -0.067700
     10 C10         25.9970    -3.8400   -14.2500 c6         1 97I      -0.072700
     11 C11         26.5870    -5.5800   -15.9740 c6         1 97I      -0.075400
     12 C12         23.8210    -7.0590   -13.7100 c6         1 97I      -0.109400
     13 C13         25.0230   -10.2720   -15.7200 c5         1 97I      -0.078700
     14 C14         24.1220    -8.5580   -13.8450 c6         1 97I       0.187300
     15 C15         26.2990    -8.5770   -16.9570 c5         1 97I      -0.076400
     16 C16         26.3490    -4.0940   -15.7330 c6         1 97I       0.182300
     17 C17         26.0810    -2.3540   -13.7600 c6         1 97I      -0.023000
     18 C18         25.5490    -9.9110   -17.1190 c5         1 97I      -0.075400
     19 C19         24.3960    -4.4540   -12.4050 c6         1 97I      -0.070400
     20 C21         27.0110    -8.2560   -14.6130 c3         1 97I      -0.088100
     21 C22         23.4280    -4.0980   -14.6520 c3         1 97I      -0.083100
     22 C23         25.7110    -2.3350   -12.2600 c6         1 97I       0.174300
     23 C24         23.9480   -11.3940   -15.6590 c3         1 97I       0.207000
     24 C25         24.3930    -3.0110   -11.9410 c6         1 97I      -0.111400
     25 C26         27.5340    -1.8300   -13.8220 c3         1 97I      -0.081100
     26 C27         25.1980    -1.3880   -14.5600 c3         1 97I      -0.081100
     27 C28         24.0660   -12.1070   -14.2870 c3         1 97I      -0.092400
     28 C29         24.1910   -12.4150   -16.7710 c3         1 97I      -0.084100
     29 C30         22.8010   -12.7740   -13.7330 c3         1 97I      -0.027200
     30 C31         22.1850   -13.8410   -14.5880 c2         1 97I      -0.209200
     31 C32         22.3510   -15.1620   -14.4810 c2         1 97I      -0.127400
     32 C33         23.2250   -15.8280   -13.4600 c3         1 97I      -0.053400
     33 C34         21.6600   -16.1090   -15.4190 c3         1 97I      -0.053400
     34 H1          22.6110    -9.1160   -12.7190 ho         1 97I       0.450000
     35 H2          27.3450    -2.5470   -16.3870 ho         1 97I       0.443000
     36 H3          25.5350    -1.0040   -10.8610 ho         1 97I       0.440000
     37 H4          22.4460   -10.3040   -15.1230 ho         1 97I       0.467000
     38 H5          25.8000    -6.3320   -13.5170 hc         1 97I       0.045700
     39 H6          23.8100    -8.5570   -15.9220 hc         1 97I       0.071700
     40 H7          26.7710    -4.3570   -13.6610 hc         1 97I       0.049700
     41 H8          26.8480    -5.7280   -17.0280 hc         1 97I       0.055200
     42 H9          27.4710    -5.8560   -15.3920 hc         1 97I       0.055200
     43 H10         23.5810    -6.8670   -12.6620 hc         1 97I       0.045200
     44 H11         22.9020    -6.8630   -14.2710 hc         1 97I       0.045200
     45 H12         25.8690   -10.6320   -15.1250 hc         1 97I       0.047700
     46 H13         24.8790    -8.8490   -13.1050 h1         1 97I       0.033700
     47 H14         27.3790    -8.7370   -16.9580 hc         1 97I       0.044700
     48 H15         26.1010    -7.9100   -17.7960 hc         1 97I       0.044700
     49 H16         25.5140    -3.7470   -16.3540 h1         1 97I       0.031700
     50 H17         24.7030    -9.7800   -17.8000 hc         1 97I       0.047700
     51 H18         26.1820   -10.6880   -17.5480 hc         1 97I       0.047700
     52 H19         23.4360    -4.9060   -12.1520 hc         1 97I       0.039700
     53 H20         25.1570    -5.0060   -11.8390 hc         1 97I       0.039700
     54 H24         26.8280    -7.9510   -13.5840 hc         1 97I       0.034700
     55 H25         27.2540    -9.3180   -14.5850 hc         1 97I       0.034700
     56 H26         27.9170    -7.7490   -14.9430 hc         1 97I       0.034700
     57 H27         22.6230    -4.8320   -14.6050 hc         1 97I       0.035033
     58 H28         23.0370    -3.1910   -14.1960 hc         1 97I       0.035033
     59 H29         23.5910    -3.8700   -15.7020 hc         1 97I       0.035033
     60 H30         26.5020    -2.9070   -11.7430 h1         1 97I       0.025700
     61 H31         24.2310    -2.9840   -10.8580 hc         1 97I       0.045700
     62 H32         23.5640    -2.4500   -12.3810 hc         1 97I       0.045700
     63 H33         28.2560    -2.6040   -13.5560 hc         1 97I       0.036700
     64 H34         27.8120    -1.4360   -14.7970 hc         1 97I       0.036700
     65 H35         27.6570    -1.0080   -13.1190 hc         1 97I       0.036700
     66 H36         25.4510    -0.3530   -14.3270 hc         1 97I       0.036700
     67 H37         25.3460    -1.5120   -15.6350 hc         1 97I       0.036700
     68 H38         24.1340    -1.5100   -14.3710 hc         1 97I       0.036700
     69 H39         24.8610   -12.8560   -14.3660 hc         1 97I       0.038700
     70 H40         24.4060   -11.3970   -13.5310 hc         1 97I       0.038700
     71 H41         25.2170   -12.7810   -16.7370 hc         1 97I       0.040700
     72 H42         23.5330   -13.2770   -16.6630 hc         1 97I       0.040700
     73 H43         24.0220   -11.9850   -17.7590 hc         1 97I       0.040700
     74 H44         22.0500   -12.0030   -13.5450 hc         1 97I       0.040200
     75 H45         23.0570   -13.1760   -12.7500 hc         1 97I       0.040200
     76 H46         21.5410   -13.4820   -15.3850 ha         1 97I       0.178000
     77 H47         23.7540   -15.1270   -12.8180 hc         1 97I       0.036200
     78 H48         22.6400   -16.4940   -12.8220 hc         1 97I       0.036200
     79 H49         23.9740   -16.4560   -13.9520 hc         1 97I       0.036200
     80 H50         21.0270   -16.8150   -14.8720 hc         1 97I       0.036200
     81 H51         21.0320   -15.5870   -16.1410 hc         1 97I       0.036200
     82 H52         22.3850   -16.7110   -15.9730 hc         1 97I       0.036200
     83 C20         24.2990    -6.2830   -16.6590 c3         1 97I      -0.088100
     84 H21         23.3000    -6.4940   -16.2840 hc         1 97I       0.036367
     85 H22         24.2780    -5.2640   -17.0390 hc         1 97I       0.036367
     86 H23         24.4500    -6.9230   -17.5270 hc         1 97I       0.036367
@<TRIPOS>BOND
     1     1    14 1   
     2     1    34 1   
     3     2    16 1   
     4     2    35 1   
     5     3    22 1   
     6     3    36 1   
     7     4    23 1   
     8     4    37 1   
     9     5     6 1   
    10     5     7 1   
    11     5    11 1   
    12     5    83 1   
    13     6     9 1   
    14     6    15 1   
    15     6    20 1   
    16     7     8 1   
    17     7    12 1   
    18     7    38 1   
    19     8    10 1   
    20     8    19 1   
    21     8    21 1   
    22     9    13 1   
    23     9    14 1   
    24     9    39 1   
    25    10    16 1   
    26    10    17 1   
    27    10    40 1   
    28    11    16 1   
    29    11    41 1   
    30    11    42 1   
    31    12    14 1   
    32    12    43 1   
    33    12    44 1   
    34    13    18 1   
    35    13    23 1   
    36    13    45 1   
    37    14    46 1   
    38    15    18 1   
    39    15    47 1   
    40    15    48 1   
    41    16    49 1   
    42    17    22 1   
    43    17    25 1   
    44    17    26 1   
    45    18    50 1   
    46    18    51 1   
    47    19    24 1   
    48    19    52 1   
    49    19    53 1   
    50    20    54 1   
    51    20    55 1   
    52    20    56 1   
    53    21    57 1   
    54    21    58 1   
    55    21    59 1   
    56    22    24 1   
    57    22    60 1   
    58    23    27 1   
    59    23    28 1   
    60    24    61 1   
    61    24    62 1   
    62    25    63 1   
    63    25    64 1   
    64    25    65 1   
    65    26    66 1   
    66    26    67 1   
    67    26    68 1   
    68    27    29 1   
    69    27    69 1   
    70    27    70 1   
    71    28    71 1   
    72    28    72 1   
    73    28    73 1   
    74    29    30 1   
    75    29    74 1   
    76    29    75 1   
    77    30    31 2   
    78    30    76 1   
    79    31    32 1   
    80    31    33 1   
    81    32    77 1   
    82    32    78 1   
    83    32    79 1   
    84    33    80 1   
    85    33    81 1   
    86    33    82 1   
    87    83    84 1   
    88    83    85 1   
    89    83    86 1   
@<TRIPOS>SUBSTRUCTURE
     1 97I         1 TEMP              0 ****  ****    0 ROOT
