@<TRIPOS>MOLECULE
97K
   30    33     1     0     0
SMALL
No Charge or Current Charge


@<TRIPOS>ATOM
      1 CAT         -1.8600     0.8280     0.2210 ca         1 97K       0.027000
      2 CAS         -3.2550     0.7180     0.1410 ca         1 97K      -0.168000
      3 CAR         -4.2730     1.6880     0.3460 cc         1 97K      -0.176100
      4 NAQ         -5.4790     1.0240     0.1300 na         1 97K       0.020500
      5 NAP         -5.2900    -0.3240    -0.2060 nc         1 97K      -0.280400
      6 CAO         -3.8990    -0.4470    -0.1810 ca         1 97K      -0.056000
      7 CAN         -3.1520    -1.6000    -0.4540 ca         1 97K      -0.080000
      8 CAM         -1.7430    -1.5380    -0.3830 ca         1 97K      -0.089000
      9 CAL         -1.0760    -0.3290    -0.0250 ca         1 97K      -0.186900
     10 CAD          0.3930    -0.2410     0.0170 cc         1 97K       0.578500
     11 NAE          1.0000     0.9350    -0.1590 nd         1 97K      -0.653100
     12 CAF          2.4030     0.8920    -0.0880 ca         1 97K       0.199400
     13 CAG          3.1000     2.1000    -0.2760 ca         1 97K      -0.110000
     14 CAH          4.5040     2.1410    -0.2220 ca         1 97K      -0.074000
     15 CAI          5.2280     0.9650     0.0240 ca         1 97K      -0.138000
     16 CAJ          4.5470    -0.2480     0.2140 ca         1 97K      -0.037000
     17 CAK          3.1370    -0.2830     0.1580 ca         1 97K      -0.208600
     18 CAB          2.3930    -1.5460     0.3620 c          1 97K       0.578600
     19 OAA          2.9210    -2.6230     0.5920 o          1 97K      -0.541000
     20 NAC          1.0540    -1.4120     0.2750 ns         1 97K      -0.427400
     21 H1          -1.4030     1.7820     0.4790 ha         1 97K       0.145000
     22 H2          -4.2480     2.7400     0.6130 h4         1 97K       0.233000
     23 H3          -6.4130     1.4210     0.1930 hn         1 97K       0.374000
     24 H4          -3.6500    -2.5290    -0.7240 ha         1 97K       0.132000
     25 H5          -1.1790    -2.4360    -0.6230 ha         1 97K       0.107000
     26 H6           2.5460     3.0150    -0.4660 ha         1 97K       0.129000
     27 H7           5.0270     3.0830    -0.3700 ha         1 97K       0.115000
     28 H8           6.3140     0.9920     0.0670 ha         1 97K       0.119000
     29 H9           5.1150    -1.1570     0.4060 ha         1 97K       0.134000
     30 H10          0.5140    -2.2490     0.4300 hn         1 97K       0.330500
@<TRIPOS>BOND
     1     1     2 ar  
     2     1     9 ar  
     3     1    21 1   
     4     2     3 2   
     5     2     6 ar  
     6     3     4 1   
     7     3    22 1   
     8     4     5 1   
     9     4    23 1   
    10     5     6 2   
    11     6     7 ar  
    12     7     8 ar  
    13     7    24 1   
    14     8     9 ar  
    15     8    25 1   
    16     9    10 1   
    17    10    11 2   
    18    10    20 1   
    19    11    12 1   
    20    12    13 ar  
    21    12    17 ar  
    22    13    14 ar  
    23    13    26 1   
    24    14    15 ar  
    25    14    27 1   
    26    15    16 ar  
    27    15    28 1   
    28    16    17 ar  
    29    16    29 1   
    30    17    18 1   
    31    18    19 2   
    32    18    20 1   
    33    20    30 1   
@<TRIPOS>SUBSTRUCTURE
     1 97K         1 TEMP              0 ****  ****    0 ROOT
