@<TRIPOS>MOLECULE
97K
   30    33     1     0     0
SMALL
bcc


@<TRIPOS>ATOM
      1 CAT         -1.7820     0.8370     0.0270 ca         1 97K       0.009000
      2 CAS         -3.1840     0.8010     0.0170 ca         1 97K      -0.168000
      3 CAR         -4.1940     1.7630     0.0350 cc         1 97K      -0.126100
      4 NAQ         -5.3330     1.0770     0.0110 na         1 97K       0.070800
      5 NAP         -5.2070    -0.2440    -0.0200 nc         1 97K      -0.280400
      6 CAO         -3.8880    -0.4360    -0.0160 ca         1 97K      -0.056000
      7 CAN         -3.1680    -1.6520    -0.0430 ca         1 97K      -0.098000
      8 CAM         -1.8060    -1.5920    -0.0330 ca         1 97K      -0.107000
      9 CAL         -1.0910    -0.3530     0.0020 ca         1 97K      -0.186900
     10 CAD          0.3830    -0.2980     0.0110 cc         1 97K       0.578500
     11 NAE          0.9800     0.8440     0.0120 nd         1 97K      -0.653100
     12 CAF          2.3480     0.8710     0.0240 ca         1 97K       0.199400
     13 CAG          2.9990     2.1150     0.0280 ca         1 97K      -0.128000
     14 CAH          4.3740     2.1770     0.0400 ca         1 97K      -0.092000
     15 CAI          5.1450     1.0080     0.0480 ca         1 97K      -0.156000
     16 CAJ          4.5230    -0.2220     0.0430 ca         1 97K      -0.055000
     17 CAK          3.1280    -0.2970     0.0310 ca         1 97K      -0.208600
     18 CAB          2.4490    -1.5840     0.0280 c          1 97K       0.721100
     19 OAA          2.9910    -2.6750     0.0340 o          1 97K      -0.616500
     20 NAC          1.0750    -1.4760     0.0190 ns         1 97K      -0.494400
     21 H1          -1.2480     1.7760     0.0530 ha         1 97K       0.163000
     22 H2          -4.1710     2.8400     0.0600 h4         1 97K       0.183000
     23 H3          -6.2600     1.4780     0.0140 hn         1 97K       0.323700
     24 H4          -3.6810    -2.6040    -0.0710 ha         1 97K       0.150000
     25 H5          -1.2780    -2.5370    -0.0590 ha         1 97K       0.125000
     26 H6           2.3990     3.0150     0.0210 ha         1 97K       0.147000
     27 H7           4.8660     3.1410     0.0430 ha         1 97K       0.133000
     28 H8           6.2240     1.0720     0.0580 ha         1 97K       0.137000
     29 H9           5.1090    -1.1310     0.0490 ha         1 97K       0.152000
     30 H10          0.5740    -2.3530     0.0240 hn         1 97K       0.330500
@<TRIPOS>BOND
     1     1     2 ar  
     2     1     9 ar  
     3     1    21 1   
     4     2     3 2   
     5     2     6 ar  
     6     3     4 1   
     7     3    22 1   
     8     4     5 1   
     9     4    23 1   
    10     5     6 2   
    11     6     7 ar  
    12     7     8 ar  
    13     7    24 1   
    14     8     9 ar  
    15     8    25 1   
    16     9    10 1   
    17    10    11 2   
    18    10    20 1   
    19    11    12 1   
    20    12    13 ar  
    21    12    17 ar  
    22    13    14 ar  
    23    13    26 1   
    24    14    15 ar  
    25    14    27 1   
    26    15    16 ar  
    27    15    28 1   
    28    16    17 ar  
    29    16    29 1   
    30    17    18 1   
    31    18    19 2   
    32    18    20 1   
    33    20    30 1   
@<TRIPOS>SUBSTRUCTURE
     1 97K         1 TEMP              0 ****  ****    0 ROOT
