@<TRIPOS>MOLECULE
97M
   59    58     1     0     0
SMALL
bcc


@<TRIPOS>ATOM
      1 C19         11.2720     3.3170     0.3860 c3         1 97M      -0.088100
      2 C8           3.7530    -1.4850     0.7120 c3         1 97M      -0.042200
      3 C7           2.4320    -1.9140     0.0710 c3         1 97M      -0.072400
      4 C15         10.0300     2.8330    -0.3490 c3         1 97M      -0.075400
      5 C9           4.8760    -2.4110     0.3640 c2         1 97M      -0.166200
      6 C6           1.2560    -1.0460     0.5020 c3         1 97M      -0.075400
      7 C21         -7.3520    -0.0140    -0.3620 c3         1 97M       0.105400
      8 C14          9.4920     1.5140     0.1910 c3         1 97M      -0.075400
      9 C10          6.0130    -2.1230    -0.2670 c2         1 97M      -0.165200
     10 C5          -0.0710    -1.4860    -0.1050 c3         1 97M      -0.074400
     11 C13          8.2550     1.0200    -0.5500 c3         1 97M      -0.075400
     12 C11          6.4770    -0.7890    -0.7610 c3         1 97M      -0.043200
     13 C4          -1.2440    -0.6250     0.3450 c3         1 97M      -0.076400
     14 C12          7.7210    -0.3010    -0.0150 c3         1 97M      -0.072400
     15 C3          -2.5780    -1.0830    -0.2310 c3         1 97M      -0.067400
     16 C2          -3.7230    -0.1980     0.2340 c3         1 97M      -0.137400
     17 C24         -9.6390     0.9430    -0.4120 c3         1 97M       0.105400
     18 C22         -8.2050     1.1800     0.0350 c3         1 97M       0.141100
     19 O19         -5.3060    -1.6620    -0.8470 o          1 97M      -0.540000
     20 C1          -5.0730    -0.6280    -0.2720 c          1 97M       0.641100
     21 O20         -6.0050     0.2760     0.0090 os         1 97M      -0.411900
     22 O23         -8.1080     1.4700     1.4080 oh         1 97M      -0.563800
     23 O25        -10.3880     2.1070    -0.1640 oh         1 97M      -0.579800
     24 H1          11.0640     3.4870     1.4440 hc         1 97M       0.031367
     25 H2          12.0780     2.5830     0.3250 hc         1 97M       0.031367
     26 H3          11.6450     4.2530    -0.0310 hc         1 97M       0.031367
     27 H4           3.9790    -0.4550     0.4260 hc         1 97M       0.044200
     28 H5           3.6240    -1.4800     1.8000 hc         1 97M       0.044200
     29 H6           2.5330    -1.8850    -1.0180 hc         1 97M       0.040200
     30 H7           2.2290    -2.9590     0.3310 hc         1 97M       0.040200
     31 H8           9.2470     3.5960    -0.2860 hc         1 97M       0.036700
     32 H9          10.2570     2.7220    -1.4140 hc         1 97M       0.036700
     33 H10          4.7210    -3.4460     0.6630 ha         1 97M       0.114000
     34 H11          1.1760    -1.0650     1.5940 hc         1 97M       0.037200
     35 H12          1.4520    -0.0030     0.2300 hc         1 97M       0.037200
     36 H13         -7.6950    -0.9210     0.1460 h1         1 97M       0.050700
     37 H14         -7.4230    -0.1850    -1.4380 h1         1 97M       0.050700
     38 H15         10.2780     0.7520     0.1350 hc         1 97M       0.037700
     39 H16          9.2570     1.6270     1.2550 hc         1 97M       0.037700
     40 H17          6.7150    -2.9380    -0.4310 ha         1 97M       0.115000
     41 H18          0.0010    -1.4620    -1.1970 hc         1 97M       0.040200
     42 H19         -0.2610    -2.5310     0.1650 hc         1 97M       0.040200
     43 H20          7.4690     1.7810    -0.4910 hc         1 97M       0.036700
     44 H21          8.4900     0.9110    -1.6150 hc         1 97M       0.036700
     45 H22          6.7190    -0.8690    -1.8270 hc         1 97M       0.043700
     46 H23          5.6880    -0.0380    -0.6830 hc         1 97M       0.043700
     47 H24         -1.3010    -0.6350     1.4390 hc         1 97M       0.038200
     48 H25         -1.0620     0.4170     0.0610 hc         1 97M       0.038200
     49 H26          8.5050    -1.0640    -0.0780 hc         1 97M       0.039200
     50 H27          7.4830    -0.1990     1.0480 hc         1 97M       0.039200
     51 H28         -2.5250    -1.0770    -1.3230 hc         1 97M       0.053700
     52 H29         -2.7620    -2.1190     0.0650 hc         1 97M       0.053700
     53 H30         -3.7710    -0.1840     1.3290 hc         1 97M       0.073700
     54 H31         -3.5540     0.8420    -0.0630 hc         1 97M       0.073700
     55 H32         -9.6390     0.6780    -1.4780 h1         1 97M       0.021200
     56 H33        -10.0460     0.0750     0.1280 h1         1 97M       0.021200
     57 H34         -7.8250     2.0650    -0.4850 h1         1 97M       0.098700
     58 H35         -8.4760     0.7320     1.9070 ho         1 97M       0.397000
     59 H36        -11.3000     1.9320    -0.4120 ho         1 97M       0.406000
@<TRIPOS>BOND
     1     1     4 1   
     2     1    24 1   
     3     1    25 1   
     4     1    26 1   
     5     2     3 1   
     6     2     5 1   
     7     2    27 1   
     8     2    28 1   
     9     3     6 1   
    10     3    29 1   
    11     3    30 1   
    12     4     8 1   
    13     4    31 1   
    14     4    32 1   
    15     5     9 2   
    16     5    33 1   
    17     6    10 1   
    18     6    34 1   
    19     6    35 1   
    20     7    18 1   
    21     7    21 1   
    22     7    36 1   
    23     7    37 1   
    24     8    11 1   
    25     8    38 1   
    26     8    39 1   
    27     9    12 1   
    28     9    40 1   
    29    10    13 1   
    30    10    41 1   
    31    10    42 1   
    32    11    14 1   
    33    11    43 1   
    34    11    44 1   
    35    12    14 1   
    36    12    45 1   
    37    12    46 1   
    38    13    15 1   
    39    13    47 1   
    40    13    48 1   
    41    14    49 1   
    42    14    50 1   
    43    15    16 1   
    44    15    51 1   
    45    15    52 1   
    46    16    20 1   
    47    16    53 1   
    48    16    54 1   
    49    17    18 1   
    50    17    23 1   
    51    17    55 1   
    52    17    56 1   
    53    18    22 1   
    54    18    57 1   
    55    19    20 2   
    56    20    21 1   
    57    22    58 1   
    58    23    59 1   
@<TRIPOS>SUBSTRUCTURE
     1 97M         1 TEMP              0 ****  ****    0 ROOT
