@<TRIPOS>MOLECULE
97M
   59    58     1     0     0
SMALL
No Charge or Current Charge


@<TRIPOS>ATOM
      1 C19          9.1780     4.2840     0.6970 c3         1 97M      -0.088100
      2 C8           4.0890    -2.5430     0.5660 c3         1 97M      -0.042200
      3 C7           2.6550    -2.5800    -0.0020 c3         1 97M      -0.072400
      4 C15          8.0770     3.5920    -0.1290 c3         1 97M      -0.075400
      5 C9           5.1070    -3.0880    -0.4180 c2         1 97M      -0.216200
      6 C6           1.6000    -2.0210     0.9780 c3         1 97M      -0.075400
      7 C21         -6.4000     0.2530    -0.0750 c3         1 97M       0.128600
      8 C14          8.0730     2.0560     0.0350 c3         1 97M      -0.075400
      9 C10          5.8730    -2.3750    -1.2640 c2         1 97M      -0.215200
     10 C5           0.1660    -2.0570     0.4060 c3         1 97M      -0.074400
     11 C13          6.9690     1.3620    -0.7920 c3         1 97M      -0.075400
     12 C11          5.8610    -0.8690    -1.4500 c3         1 97M      -0.043200
     13 C4          -0.8890    -1.4970     1.3850 c3         1 97M      -0.076400
     14 C12          6.9650    -0.1740    -0.6280 c3         1 97M      -0.072400
     15 C3          -2.3240    -1.5330     0.8130 c3         1 97M      -0.067400
     16 C2          -3.3800    -0.9730     1.7940 c3         1 97M      -0.137400
     17 C24         -7.8470     1.7970    -1.5360 c3         1 97M       0.128600
     18 C22         -6.5540     1.6700    -0.6880 c3         1 97M       0.164300
     19 O19         -5.5050    -2.0080     1.2210 o          1 97M      -0.491000
     20 C1          -4.7840    -1.0200     1.1870 c          1 97M       0.592100
     21 O20         -5.1090     0.1560     0.5630 os         1 97M      -0.435100
     22 O23         -6.5840     2.6730     0.3470 oh         1 97M      -0.626000
     23 O25         -7.9830     3.1390    -2.0340 oh         1 97M      -0.642000
     24 H1           9.0490     4.0790     1.7660 hc         1 97M       0.031367
     25 H2          10.1710     3.9310     0.3930 hc         1 97M       0.031367
     26 H3           9.1410     5.3700     0.5490 hc         1 97M       0.031367
     27 H4           4.3350    -1.5110     0.8460 hc         1 97M       0.044200
     28 H5           4.1270    -3.1240     1.4950 hc         1 97M       0.044200
     29 H6           2.6250    -2.0020    -0.9340 hc         1 97M       0.040200
     30 H7           2.3980    -3.6160    -0.2590 hc         1 97M       0.040200
     31 H8           7.1010     3.9920     0.1730 hc         1 97M       0.036700
     32 H9           8.2130     3.8440    -1.1880 hc         1 97M       0.036700
     33 H10          5.2060    -4.1750    -0.3900 ha         1 97M       0.164000
     34 H11          1.6310    -2.5990     1.9100 hc         1 97M       0.037200
     35 H12          1.8590    -0.9860     1.2340 hc         1 97M       0.037200
     36 H13         -7.2080     0.0770     0.6470 h1         1 97M       0.050700
     37 H14         -6.4870    -0.4950    -0.8740 h1         1 97M       0.050700
     38 H15          9.0510     1.6600    -0.2660 hc         1 97M       0.037700
     39 H16          7.9390     1.8070     1.0950 hc         1 97M       0.037700
     40 H17          6.5790    -2.8930    -1.9160 ha         1 97M       0.165000
     41 H18          0.1350    -1.4790    -0.5260 hc         1 97M       0.040200
     42 H19         -0.0940    -3.0920     0.1500 hc         1 97M       0.040200
     43 H20          5.9910     1.7590    -0.4910 hc         1 97M       0.036700
     44 H21          7.1030     1.6100    -1.8530 hc         1 97M       0.036700
     45 H22          5.9950    -0.6290    -2.5130 hc         1 97M       0.043700
     46 H23          4.8880    -0.4510    -1.1670 hc         1 97M       0.043700
     47 H24         -0.8580    -2.0750     2.3170 hc         1 97M       0.038200
     48 H25         -0.6290    -0.4620     1.6410 hc         1 97M       0.038200
     49 H26          7.9420    -0.5730    -0.9290 hc         1 97M       0.039200
     50 H27          6.8310    -0.4230     0.4320 hc         1 97M       0.039200
     51 H28         -2.3550    -0.9550    -0.1200 hc         1 97M       0.053700
     52 H29         -2.5840    -2.5680     0.5560 hc         1 97M       0.053700
     53 H30         -3.3670    -1.5680     2.7150 hc         1 97M       0.073700
     54 H31         -3.1160     0.0700     2.0050 hc         1 97M       0.073700
     55 H32         -7.7980     1.0860    -2.3720 h1         1 97M       0.021200
     56 H33         -8.7160     1.5290    -0.9200 h1         1 97M       0.021200
     57 H34         -5.7000     1.8400    -1.3580 h1         1 97M       0.098700
     58 H35         -7.0100     3.4530    -0.0750 ho         1 97M       0.436000
     59 H36         -8.7860     3.1570    -2.6040 ho         1 97M       0.445000
@<TRIPOS>BOND
     1     1     4 1   
     2     1    24 1   
     3     1    25 1   
     4     1    26 1   
     5     2     3 1   
     6     2     5 1   
     7     2    27 1   
     8     2    28 1   
     9     3     6 1   
    10     3    29 1   
    11     3    30 1   
    12     4     8 1   
    13     4    31 1   
    14     4    32 1   
    15     5     9 2   
    16     5    33 1   
    17     6    10 1   
    18     6    34 1   
    19     6    35 1   
    20     7    18 1   
    21     7    21 1   
    22     7    36 1   
    23     7    37 1   
    24     8    11 1   
    25     8    38 1   
    26     8    39 1   
    27     9    12 1   
    28     9    40 1   
    29    10    13 1   
    30    10    41 1   
    31    10    42 1   
    32    11    14 1   
    33    11    43 1   
    34    11    44 1   
    35    12    14 1   
    36    12    45 1   
    37    12    46 1   
    38    13    15 1   
    39    13    47 1   
    40    13    48 1   
    41    14    49 1   
    42    14    50 1   
    43    15    16 1   
    44    15    51 1   
    45    15    52 1   
    46    16    20 1   
    47    16    53 1   
    48    16    54 1   
    49    17    18 1   
    50    17    23 1   
    51    17    55 1   
    52    17    56 1   
    53    18    22 1   
    54    18    57 1   
    55    19    20 2   
    56    20    21 1   
    57    22    58 1   
    58    23    59 1   
@<TRIPOS>SUBSTRUCTURE
     1 97M         1 TEMP              0 ****  ****    0 ROOT
