@<TRIPOS>MOLECULE
97N
   59    58     1     0     0
SMALL
No Charge or Current Charge


@<TRIPOS>ATOM
      1 C            9.1280    -4.3010    -0.7080 c3         1 97N      -0.088100
      2 O           -5.5140     2.0550    -1.2590 o          1 97N      -0.491000
      3 C1           8.0320    -3.5970     0.1140 c3         1 97N      -0.074400
      4 O1          -5.1310    -0.1120    -0.6010 os         1 97N      -0.435100
      5 C2           8.0390    -2.0630    -0.0580 c3         1 97N      -0.075400
      6 O2          -5.6180    -1.7710     1.7580 oh         1 97N      -0.626000
      7 C3           6.9390    -1.3570     0.7670 c3         1 97N      -0.075400
      8 C4           6.9450     0.1770     0.5930 c3         1 97N      -0.072400
      9 C5           5.8460     0.8840     1.4130 c3         1 97N      -0.043200
     10 C6           5.8650     2.3890     1.2180 c2         1 97N      -0.215200
     11 C7           5.1040     3.1010     0.3680 c2         1 97N      -0.216200
     12 C8           4.0830     2.5550    -0.6120 c3         1 97N      -0.043200
     13 C9           2.6490     2.6020    -0.0440 c3         1 97N      -0.072400
     14 C10          1.5910     2.0420    -1.0200 c3         1 97N      -0.075400
     15 C11          0.1570     2.0870    -0.4480 c3         1 97N      -0.074400
     16 C12         -0.9000     1.5260    -1.4230 c3         1 97N      -0.076400
     17 C13         -2.3340     1.5700    -0.8510 c3         1 97N      -0.067400
     18 C14         -3.3930     1.0090    -1.8280 c3         1 97N      -0.137400
     19 C15         -4.7970     1.0640    -1.2200 c          1 97N       0.592100
     20 C16         -6.4210    -0.2000     0.0390 c3         1 97N       0.128600
     21 C17         -6.5680    -1.6020     0.6880 c3         1 97N       0.164300
     22 C18         -7.9940    -1.8340     1.2520 c3         1 97N       0.128600
     23 H1          10.1240    -3.9520    -0.4080 hc         1 97N       0.031367
     24 H2           9.0840    -5.3860    -0.5550 hc         1 97N       0.031367
     25 H3           8.9990    -4.1010    -1.7790 hc         1 97N       0.031367
     26 H4           7.0530    -3.9930    -0.1850 hc         1 97N       0.036700
     27 H5           8.1680    -3.8450     1.1740 hc         1 97N       0.036700
     28 H6           9.0190    -1.6710     0.2400 hc         1 97N       0.037700
     29 H7           7.9050    -1.8190    -1.1190 hc         1 97N       0.037700
     30 H9           5.9590    -1.7490     0.4690 hc         1 97N       0.036700
     31 H10          7.0730    -1.6010     1.8280 hc         1 97N       0.036700
     32 H11         -9.0010    -3.2380     2.1920 ho         1 97N       0.445000
     33 H12          7.9240     0.5720     0.8910 hc         1 97N       0.039700
     34 H13          6.8110     0.4210    -0.4680 hc         1 97N       0.039700
     35 H14          4.8700     0.4700     1.1330 hc         1 97N       0.043700
     36 H15          5.9790     0.6490     2.4770 hc         1 97N       0.043700
     37 H16          6.5750     2.9060     1.8670 ha         1 97N       0.164000
     38 H17          5.2090     4.1870     0.3330 ha         1 97N       0.164000
     39 H18          4.1230     3.1320    -1.5450 hc         1 97N       0.044700
     40 H19          4.3240     1.5210    -0.8880 hc         1 97N       0.044700
     41 H20          2.6170     2.0300     0.8910 hc         1 97N       0.040200
     42 H21          2.3970     3.6400     0.2070 hc         1 97N       0.040200
     43 H22          1.6240     2.6150    -1.9550 hc         1 97N       0.037200
     44 H23          1.8460     1.0050    -1.2710 hc         1 97N       0.037200
     45 H24          0.1250     1.5140     0.4880 hc         1 97N       0.040200
     46 H25         -0.0980     3.1240    -0.1970 hc         1 97N       0.040200
     47 H26         -0.8680     2.0990    -2.3580 hc         1 97N       0.038200
     48 H27         -0.6440     0.4880    -1.6740 hc         1 97N       0.038200
     49 H28         -2.3680     0.9970     0.0850 hc         1 97N       0.053700
     50 H29         -2.5900     2.6070    -0.5990 hc         1 97N       0.053700
     51 H30         -3.3790     1.5990    -2.7520 hc         1 97N       0.073700
     52 H31         -3.1330    -0.0360    -2.0330 hc         1 97N       0.073700
     53 H32         -6.5290     0.5720     0.8120 h1         1 97N       0.050200
     54 H33         -7.2230    -0.0600    -0.6980 h1         1 97N       0.050200
     55 H34         -6.3960    -2.3530    -0.0960 h1         1 97N       0.097700
     56 H35         -8.7180    -1.7800     0.4280 h1         1 97N       0.021700
     57 H36         -8.2390    -1.0340     1.9650 h1         1 97N       0.021700
     58 H8          -5.9890    -2.4980     2.3070 ho         1 97N       0.436000
     59 O3          -8.0700    -3.1170     1.8970 oh         1 97N      -0.642000
@<TRIPOS>BOND
     1     1     3 1   
     2     1    23 1   
     3     1    24 1   
     4     1    25 1   
     5     2    19 2   
     6     3     5 1   
     7     3    26 1   
     8     3    27 1   
     9     4    19 1   
    10     4    20 1   
    11     5     7 1   
    12     5    28 1   
    13     5    29 1   
    14     6    21 1   
    15     6    58 1   
    16     7     8 1   
    17     7    30 1   
    18     7    31 1   
    19     8     9 1   
    20     8    33 1   
    21     8    34 1   
    22     9    10 1   
    23     9    35 1   
    24     9    36 1   
    25    10    11 2   
    26    10    37 1   
    27    11    12 1   
    28    11    38 1   
    29    12    13 1   
    30    12    39 1   
    31    12    40 1   
    32    13    14 1   
    33    13    41 1   
    34    13    42 1   
    35    14    15 1   
    36    14    43 1   
    37    14    44 1   
    38    15    16 1   
    39    15    45 1   
    40    15    46 1   
    41    16    17 1   
    42    16    47 1   
    43    16    48 1   
    44    17    18 1   
    45    17    49 1   
    46    17    50 1   
    47    18    19 1   
    48    18    51 1   
    49    18    52 1   
    50    20    21 1   
    51    20    53 1   
    52    20    54 1   
    53    21    22 1   
    54    21    55 1   
    55    22    56 1   
    56    22    57 1   
    57    22    59 1   
    58    32    59 1   
@<TRIPOS>SUBSTRUCTURE
     1 97N         1 TEMP              0 ****  ****    0 ROOT
