@<TRIPOS>MOLECULE
97N
   59    58     1     0     0
SMALL
abcg2


@<TRIPOS>ATOM
      1 C           11.2250    -3.3120    -0.4250 c3         1 97N      -0.088100
      2 O           -5.2870     1.6170     0.9510 o          1 97N      -0.491000
      3 C1          10.0020    -2.8220     0.3400 c3         1 97N      -0.074400
      4 O1          -6.0250    -0.1700    -0.1630 os         1 97N      -0.435100
      5 C2           9.4580    -1.5020    -0.1900 c3         1 97N      -0.075400
      6 O2          -7.8340    -2.2980     0.0880 oh         1 97N      -0.626000
      7 C3           8.2310    -1.0080     0.5680 c3         1 97N      -0.075400
      8 C4           7.6970     0.3190     0.0460 c3         1 97N      -0.072400
      9 C5           6.4620     0.8070     0.8060 c3         1 97N      -0.043200
     10 C6           6.0060     2.1500     0.3280 c2         1 97N      -0.215200
     11 C7           4.8790     2.4510    -0.3150 c2         1 97N      -0.216200
     12 C8           3.7590     1.5340    -0.6930 c3         1 97N      -0.043200
     13 C9           2.4290     1.9590    -0.0650 c3         1 97N      -0.072400
     14 C10          1.2550     1.1070    -0.5290 c3         1 97N      -0.075400
     15 C11         -0.0750     1.5360     0.0780 c3         1 97N      -0.074400
     16 C12         -1.2500     0.6990    -0.4100 c3         1 97N      -0.076400
     17 C13         -2.5820     1.1350     0.1880 c3         1 97N      -0.067400
     18 C14         -3.7320     0.2800    -0.3200 c3         1 97N      -0.137400
     19 C15         -5.0740     0.6680     0.2370 c          1 97N       0.592100
     20 C16         -7.3610     0.0770     0.2720 c3         1 97N       0.128600
     21 C17         -8.2450    -1.0130    -0.3100 c3         1 97N       0.164300
     22 C18         -9.6950    -0.7240     0.0460 c3         1 97N       0.128600
     23 H1          12.0340    -2.5800    -0.3880 hc         1 97N       0.031367
     24 H2          11.6050    -4.2480    -0.0140 hc         1 97N       0.031367
     25 H3          10.9890    -3.4860    -1.4770 hc         1 97N       0.031367
     26 H4           9.2150    -3.5810     0.2950 hc         1 97N       0.036700
     27 H5          10.2550    -2.7100     1.3990 hc         1 97N       0.036700
     28 H6          10.2450    -0.7400    -0.1430 hc         1 97N       0.037700
     29 H7           9.2080    -1.6120    -1.2510 hc         1 97N       0.037700
     30 H9           7.4410    -1.7650     0.5130 hc         1 97N       0.036700
     31 H10          8.4790    -0.9060     1.6310 hc         1 97N       0.036700
     32 H11        -11.4250    -1.4960    -0.3380 ho         1 97N       0.445000
     33 H12          8.4840     1.0790     0.1070 hc         1 97N       0.039700
     34 H13          7.4490     0.2240    -1.0160 hc         1 97N       0.039700
     35 H14          5.6660     0.0640     0.7240 hc         1 97N       0.043700
     36 H15          6.7110     0.8740     1.8710 hc         1 97N       0.043700
     37 H16          6.7070     2.9610     0.5140 ha         1 97N       0.164000
     38 H17          4.7300     3.4900    -0.5990 ha         1 97N       0.164000
     39 H18          3.6460     1.5460    -1.7830 hc         1 97N       0.044700
     40 H19          3.9760     0.4990    -0.4190 hc         1 97N       0.044700
     41 H20          2.5140     1.9100     1.0250 hc         1 97N       0.040200
     42 H21          2.2360     3.0090    -0.3090 hc         1 97N       0.040200
     43 H22          1.1850     1.1560    -1.6220 hc         1 97N       0.037200
     44 H23          1.4440     0.0570    -0.2840 hc         1 97N       0.037200
     45 H24         -0.0130     1.4740     1.1700 hc         1 97N       0.040200
     46 H25         -0.2560     2.5910    -0.1570 hc         1 97N       0.040200
     47 H26         -1.3060     0.7560    -1.5020 hc         1 97N       0.038200
     48 H27         -1.0720    -0.3550    -0.1710 hc         1 97N       0.038200
     49 H28         -2.5290     1.0750     1.2780 hc         1 97N       0.053700
     50 H29         -2.7620     2.1850    -0.0560 hc         1 97N       0.053700
     51 H30         -3.7940     0.3330    -1.4120 hc         1 97N       0.073700
     52 H31         -3.5580    -0.7760    -0.0900 hc         1 97N       0.073700
     53 H32         -7.4110     0.0700     1.3660 h1         1 97N       0.050200
     54 H33         -7.6950     1.0590    -0.0720 h1         1 97N       0.050200
     55 H34         -8.1480    -0.9940    -1.4010 h1         1 97N       0.097700
     56 H35         -9.9410     0.2940    -0.2820 h1         1 97N       0.021700
     57 H36         -9.8060    -0.7400     1.1410 h1         1 97N       0.021700
     58 H8          -7.9620    -2.3840     1.0400 ho         1 97N       0.436000
     59 O3         -10.5130    -1.6840    -0.5740 oh         1 97N      -0.642000
@<TRIPOS>BOND
     1     1     3 1   
     2     1    23 1   
     3     1    24 1   
     4     1    25 1   
     5     2    19 2   
     6     3     5 1   
     7     3    26 1   
     8     3    27 1   
     9     4    19 1   
    10     4    20 1   
    11     5     7 1   
    12     5    28 1   
    13     5    29 1   
    14     6    21 1   
    15     6    58 1   
    16     7     8 1   
    17     7    30 1   
    18     7    31 1   
    19     8     9 1   
    20     8    33 1   
    21     8    34 1   
    22     9    10 1   
    23     9    35 1   
    24     9    36 1   
    25    10    11 2   
    26    10    37 1   
    27    11    12 1   
    28    11    38 1   
    29    12    13 1   
    30    12    39 1   
    31    12    40 1   
    32    13    14 1   
    33    13    41 1   
    34    13    42 1   
    35    14    15 1   
    36    14    43 1   
    37    14    44 1   
    38    15    16 1   
    39    15    45 1   
    40    15    46 1   
    41    16    17 1   
    42    16    47 1   
    43    16    48 1   
    44    17    18 1   
    45    17    49 1   
    46    17    50 1   
    47    18    19 1   
    48    18    51 1   
    49    18    52 1   
    50    20    21 1   
    51    20    53 1   
    52    20    54 1   
    53    21    22 1   
    54    21    55 1   
    55    22    56 1   
    56    22    57 1   
    57    22    59 1   
    58    32    59 1   
@<TRIPOS>SUBSTRUCTURE
     1 97N         1 TEMP              0 ****  ****    0 ROOT
