@<TRIPOS>MOLECULE
97O
   49    52     1     0     0
SMALL
No Charge or Current Charge


@<TRIPOS>ATOM
      1 C2          -2.6170    -1.6180     0.1790 ca         1 97O       0.040100
      2 O24         -3.3670    -2.7770     0.0800 os         1 97O      -0.342100
      3 C25         -3.8180    -3.2380    -1.2070 c3         1 97O       0.150900
      4 C3          -1.3160    -1.7030     0.7210 ca         1 97O       0.132100
      5 O26         -0.8610    -2.9340     1.1640 os         1 97O      -0.325100
      6 C27          0.4750    -3.1320     1.6600 c3         1 97O       0.143900
      7 C4          -0.5060    -0.5510     0.7800 ca         1 97O      -0.195000
      8 C5          -0.9670     0.6770     0.2720 ca         1 97O       0.060000
      9 C10         -0.1640     1.9010     0.3130 cc         1 97O      -0.156000
     10 C11          1.2050     2.0180     0.3310 cd         1 97O      -0.058000
     11 C14          2.2890     1.0470     0.0630 ca         1 97O      -0.079000
     12 C19          2.0880    -0.0920    -0.7460 ca         1 97O      -0.053500
     13 C18          3.1420    -0.9850    -1.0020 ca         1 97O      -0.178000
     14 C17          4.4190    -0.7500    -0.4730 ca         1 97O       0.153100
     15 O20          5.4140    -1.6620    -0.7570 os         1 97O      -0.338100
     16 C21          6.7580    -1.5100    -0.2650 c3         1 97O       0.146900
     17 C16          4.6420     0.4030     0.3070 ca         1 97O      -0.178000
     18 C15          3.5860     1.2970     0.5620 ca         1 97O      -0.053500
     19 N12          1.4060     3.4110     0.3650 na         1 97O      -0.003200
     20 N13          0.2190     4.1440     0.2810 nd         1 97O      -0.509800
     21 C9          -0.6880     3.1940     0.2300 cc         1 97O       0.266300
     22 C8          -2.1820     3.3510     0.1300 c6         1 97O      -0.104700
     23 C7          -2.8090     2.1680    -0.6600 c6         1 97O      -0.018100
     24 C6          -2.2940     0.7870    -0.1950 ca         1 97O      -0.118300
     25 C1          -3.1200    -0.3580    -0.2460 ca         1 97O       0.120100
     26 O22         -4.4160    -0.2140    -0.7020 os         1 97O      -0.361100
     27 C23         -5.5220    -0.4980     0.1740 c3         1 97O       0.150900
     28 H1          -4.5020    -2.5220    -1.6760 h1         1 97O       0.035367
     29 H2          -2.9660    -3.3940    -1.8800 h1         1 97O       0.035367
     30 H3          -4.3490    -4.1930    -1.1020 h1         1 97O       0.035367
     31 H4           1.2180    -2.8680     0.8960 h1         1 97O       0.041033
     32 H5           0.6550    -2.5210     2.5540 h1         1 97O       0.041033
     33 H6           0.6270    -4.1840     1.9320 h1         1 97O       0.041033
     34 H7           0.4770    -0.5930     1.2330 ha         1 97O       0.127000
     35 H8           1.1240    -0.2740    -1.2120 ha         1 97O       0.123000
     36 H9           2.9710    -1.8600    -1.6240 ha         1 97O       0.127000
     37 H10          7.2050    -0.5780    -0.6330 h1         1 97O       0.043367
     38 H11          6.7720    -1.5000     0.8330 h1         1 97O       0.043367
     39 H12          7.3840    -2.3450    -0.6050 h1         1 97O       0.043367
     40 H13          5.6200     0.6230     0.7240 ha         1 97O       0.127000
     41 H14          3.7760     2.1760     1.1740 ha         1 97O       0.123000
     42 H15          2.3100     3.8790     0.3720 hn         1 97O       0.373000
     43 H17         -2.6170     3.3840     1.1380 hc         1 97O       0.059700
     44 H18         -2.4460     4.3010    -0.3530 hc         1 97O       0.059700
     45 H20         -3.9020     2.2340    -0.5770 hc         1 97O       0.056700
     46 H21         -2.5790     2.2860    -1.7280 hc         1 97O       0.056700
     47 H22         -6.4710    -0.2920    -0.3350 h1         1 97O       0.037700
     48 H23         -5.5290    -1.5480     0.4890 h1         1 97O       0.037700
     49 H24         -5.4720     0.1300     1.0720 h1         1 97O       0.037700
@<TRIPOS>BOND
     1     1     2 1   
     2     1     4 ar  
     3     1    25 ar  
     4     2     3 1   
     5     3    28 1   
     6     3    29 1   
     7     3    30 1   
     8     4     5 1   
     9     4     7 ar  
    10     5     6 1   
    11     6    31 1   
    12     6    32 1   
    13     6    33 1   
    14     7     8 ar  
    15     7    34 1   
    16     8     9 1   
    17     8    24 ar  
    18     9    10 2   
    19     9    21 1   
    20    10    11 1   
    21    10    19 1   
    22    11    12 ar  
    23    11    18 ar  
    24    12    13 ar  
    25    12    35 1   
    26    13    14 ar  
    27    13    36 1   
    28    14    15 1   
    29    14    17 ar  
    30    15    16 1   
    31    16    37 1   
    32    16    38 1   
    33    16    39 1   
    34    17    18 ar  
    35    17    40 1   
    36    18    41 1   
    37    19    20 1   
    38    19    42 1   
    39    20    21 2   
    40    21    22 1   
    41    22    23 1   
    42    22    43 1   
    43    22    44 1   
    44    23    24 1   
    45    23    45 1   
    46    23    46 1   
    47    24    25 ar  
    48    25    26 1   
    49    26    27 1   
    50    27    47 1   
    51    27    48 1   
    52    27    49 1   
@<TRIPOS>SUBSTRUCTURE
     1 97O         1 TEMP              0 ****  ****    0 ROOT
