@<TRIPOS>MOLECULE
97O
   49    52     1     0     0
SMALL
bcc


@<TRIPOS>ATOM
      1 C2          -2.7100    -1.6310     0.1660 ca         1 97O       0.040100
      2 O24         -3.5420    -2.7010     0.2530 os         1 97O      -0.318900
      3 C25         -3.7340    -3.3950    -0.9720 c3         1 97O       0.127700
      4 C3          -1.3410    -1.7900     0.4120 ca         1 97O       0.132100
      5 O26         -0.9340    -3.0410     0.6970 os         1 97O      -0.301900
      6 C27          0.4420    -3.2540     0.9360 c3         1 97O       0.120700
      7 C4          -0.5060    -0.6830     0.3620 ca         1 97O      -0.213000
      8 C5          -1.0150     0.5750     0.0420 ca         1 97O       0.060000
      9 C10         -0.1820     1.7700    -0.0040 cc         1 97O      -0.221300
     10 C11          1.1850     1.9980    -0.0520 cd         1 97O      -0.007300
     11 C14          2.3380     1.1040    -0.1630 ca         1 97O      -0.079000
     12 C19          2.3730     0.1070    -1.1420 ca         1 97O      -0.071500
     13 C18          3.4470    -0.7520    -1.2430 ca         1 97O      -0.196000
     14 C17          4.5310    -0.6330    -0.3670 ca         1 97O       0.153100
     15 O20          5.5300    -1.5150    -0.5350 os         1 97O      -0.314900
     16 C21          6.6370    -1.4610     0.3440 c3         1 97O       0.123700
     17 C16          4.5160     0.3650     0.6040 ca         1 97O      -0.196000
     18 C15          3.4250     1.2190     0.6980 ca         1 97O      -0.071500
     19 N12          1.3240     3.3370     0.0220 na         1 97O      -0.003600
     20 N13          0.1670     3.9970     0.0960 nd         1 97O      -0.509800
     21 C9          -0.7520     3.0560     0.0820 cc         1 97O       0.331600
     22 C8          -2.2240     3.2470     0.1790 c6         1 97O      -0.104700
     23 C7          -2.9160     2.1140    -0.5820 c6         1 97O      -0.018100
     24 C6          -2.3830     0.7520    -0.2030 ca         1 97O      -0.118300
     25 C1          -3.2110    -0.3700    -0.1460 ca         1 97O       0.120100
     26 O22         -4.5390    -0.2520    -0.4260 os         1 97O      -0.337900
     27 C23         -5.3620    -0.0810     0.7200 c3         1 97O       0.127700
     28 H1          -4.2010    -2.7580    -1.7270 h1         1 97O       0.035367
     29 H2          -2.7940    -3.7830    -1.3700 h1         1 97O       0.035367
     30 H3          -4.3970    -4.2340    -0.7650 h1         1 97O       0.035367
     31 H4           1.0570    -2.9710     0.0770 h1         1 97O       0.041033
     32 H5           0.7940    -2.7050     1.8140 h1         1 97O       0.041033
     33 H6           0.5640    -4.3190     1.1180 h1         1 97O       0.041033
     34 H7           0.5480    -0.7830     0.5750 ha         1 97O       0.145000
     35 H8           1.5490     0.0060    -1.8360 ha         1 97O       0.141000
     36 H9           3.4600    -1.5210    -2.0060 ha         1 97O       0.145000
     37 H10          7.1690    -0.5090     0.2720 h1         1 97O       0.043367
     38 H11          6.3400    -1.6230     1.3830 h1         1 97O       0.043367
     39 H12          7.3090    -2.2600     0.0430 h1         1 97O       0.043367
     40 H13          5.3320     0.4910     1.3020 ha         1 97O       0.145000
     41 H14          3.4230     1.9720     1.4760 ha         1 97O       0.141000
     42 H15          2.1870     3.8530    -0.0500 hn         1 97O       0.322700
     43 H17         -2.5320     3.2270     1.2300 hc         1 97O       0.059700
     44 H18         -2.5280     4.2140    -0.2220 hc         1 97O       0.059700
     45 H20         -3.9910     2.1720    -0.4190 hc         1 97O       0.056700
     46 H21         -2.7640     2.2650    -1.6570 hc         1 97O       0.056700
     47 H22         -6.3900    -0.0080     0.3690 h1         1 97O       0.037700
     48 H23         -5.2830    -0.9260     1.4070 h1         1 97O       0.037700
     49 H24         -5.1110     0.8360     1.2600 h1         1 97O       0.037700
@<TRIPOS>BOND
     1     1     2 1   
     2     1     4 ar  
     3     1    25 ar  
     4     2     3 1   
     5     3    28 1   
     6     3    29 1   
     7     3    30 1   
     8     4     5 1   
     9     4     7 ar  
    10     5     6 1   
    11     6    31 1   
    12     6    32 1   
    13     6    33 1   
    14     7     8 ar  
    15     7    34 1   
    16     8     9 1   
    17     8    24 ar  
    18     9    10 2   
    19     9    21 1   
    20    10    11 1   
    21    10    19 1   
    22    11    12 ar  
    23    11    18 ar  
    24    12    13 ar  
    25    12    35 1   
    26    13    14 ar  
    27    13    36 1   
    28    14    15 1   
    29    14    17 ar  
    30    15    16 1   
    31    16    37 1   
    32    16    38 1   
    33    16    39 1   
    34    17    18 ar  
    35    17    40 1   
    36    18    41 1   
    37    19    20 1   
    38    19    42 1   
    39    20    21 2   
    40    21    22 1   
    41    22    23 1   
    42    22    43 1   
    43    22    44 1   
    44    23    24 1   
    45    23    45 1   
    46    23    46 1   
    47    24    25 ar  
    48    25    26 1   
    49    26    27 1   
    50    27    47 1   
    51    27    48 1   
    52    27    49 1   
@<TRIPOS>SUBSTRUCTURE
     1 97O         1 TEMP              0 ****  ****    0 ROOT
