@<TRIPOS>MOLECULE
97S
   44    46     1     0     0
SMALL
abcg2


@<TRIPOS>ATOM
      1 C4          23.3220   -10.5850    18.4850 ca         1 97S       0.108600
      2 N1          23.0650    -6.9970    17.5060 nu         1 97S      -0.800200
      3 C16         26.9030    -9.5540    11.9650 ca         1 97S       0.519000
      4 N3          25.7520    -9.1680    11.4990 nb         1 97S      -0.695000
      5 C15         24.7180    -9.2260    12.3500 ca         1 97S       0.403900
      6 C14         24.7980    -9.6490    13.6510 ca         1 97S      -0.252000
      7 C17         27.1330   -10.0080    13.2660 ca         1 97S      -0.172000
      8 C18         28.4270   -10.4000    13.6860 cg         1 97S       0.334000
      9 N4          29.4650   -10.7280    14.0690 n1         1 97S      -0.451000
     10 C13         26.0410   -10.0620    14.1650 ca         1 97S       0.421000
     11 N2          26.2150   -10.5010    15.4260 nu         1 97S      -0.971000
     12 C1          25.2380   -10.5160    16.4430 ca         1 97S       0.232000
     13 C2          24.5360    -9.3780    16.7800 ca         1 97S      -0.078000
     14 C3          23.5720    -9.3850    17.7920 ca         1 97S      -0.131800
     15 C8          22.8230    -8.1950    18.1560 cc         1 97S       0.208800
     16 C9          22.0170    -6.3970    16.6830 c3         1 97S       0.195800
     17 C10         22.3330    -4.9430    16.3950 c3         1 97S      -0.099100
     18 C7          21.8980    -8.2700    19.1550 cd         1 97S      -0.215400
     19 C11         21.1680    -7.0710    19.6720 c3         1 97S      -0.032900
     20 C6          21.5960    -9.5280    19.8130 c          1 97S       0.571200
     21 O           20.7270    -9.6160    20.6750 o          1 97S      -0.550000
     22 N           22.3450   -10.6350    19.4530 n          1 97S      -0.280000
     23 C12         22.0800   -11.8980    20.1220 c3         1 97S       0.068300
     24 C5          24.0680   -11.7260    18.1590 ca         1 97S      -0.148000
     25 C           25.0050   -11.6940    17.1500 ca         1 97S      -0.079000
     26 H1          23.9530    -6.9610    17.0290 hn         1 97S       0.448000
     27 H2          23.7610    -8.9140    11.9500 h4         1 97S       0.027100
     28 H3          23.9030    -9.6750    14.2550 ha         1 97S       0.138000
     29 H4          27.0980   -10.9320    15.6600 hn         1 97S       0.514000
     30 H5          24.7490    -8.4680    16.2350 ha         1 97S       0.122000
     31 H6          21.0660    -6.4690    17.2060 h1         1 97S       0.040200
     32 H7          21.8980    -6.9480    15.7430 h1         1 97S       0.040200
     33 H8          21.5620    -4.5070    15.7600 hc         1 97S       0.043367
     34 H9          22.3840    -4.3630    17.3170 hc         1 97S       0.043367
     35 H10         23.2880    -4.8380    15.8760 hc         1 97S       0.043367
     36 H11         21.0640    -7.1200    20.7550 hc         1 97S       0.050367
     37 H12         21.7010    -6.1550    19.4220 hc         1 97S       0.050367
     38 H13         20.1580    -6.9860    19.2620 hc         1 97S       0.050367
     39 H14         21.2710   -11.7610    20.8280 h1         1 97S       0.056700
     40 H15         21.7900   -12.6620    19.4020 h1         1 97S       0.056700
     41 H16         22.9610   -12.2410    20.6650 h1         1 97S       0.056700
     42 H17         23.9150   -12.6580    18.6810 ha         1 97S       0.130000
     43 H18         25.5570   -12.5920    16.9040 ha         1 97S       0.126000
     44 CL          28.2460    -9.4920    10.8790 cl         1 97S      -0.143000
@<TRIPOS>BOND
     1     1    14 ar  
     2     1    22 1   
     3     1    24 ar  
     4     2    15 1   
     5     2    16 1   
     6     2    26 1   
     7     3     4 ar  
     8     3     7 ar  
     9     3    44 1   
    10     4     5 ar  
    11     5     6 ar  
    12     5    27 1   
    13     6    10 ar  
    14     6    28 1   
    15     7     8 1   
    16     7    10 ar  
    17     8     9 3   
    18    10    11 1   
    19    11    12 1   
    20    11    29 1   
    21    12    13 ar  
    22    12    25 ar  
    23    13    14 ar  
    24    13    30 1   
    25    14    15 1   
    26    15    18 2   
    27    16    17 1   
    28    16    31 1   
    29    16    32 1   
    30    17    33 1   
    31    17    34 1   
    32    17    35 1   
    33    18    19 1   
    34    18    20 1   
    35    19    36 1   
    36    19    37 1   
    37    19    38 1   
    38    20    21 2   
    39    20    22 1   
    40    22    23 1   
    41    23    39 1   
    42    23    40 1   
    43    23    41 1   
    44    24    25 ar  
    45    24    42 1   
    46    25    43 1   
@<TRIPOS>SUBSTRUCTURE
     1 97S         1 TEMP              0 ****  ****    0 ROOT
