@<TRIPOS>MOLECULE
97S
   44    46     1     0     0
SMALL
No Charge or Current Charge


@<TRIPOS>ATOM
      1 C4          23.2660   -10.6650    18.4850 ca         1 97S       0.108600
      2 N1          22.8860    -7.1650    17.1740 nu         1 97S      -0.800200
      3 C16         27.2560    -9.2830    12.1000 ca         1 97S       0.519000
      4 N3          26.1420    -8.7620    11.5450 nb         1 97S      -0.695000
      5 C15         24.9780    -8.9230    12.2040 ca         1 97S       0.403900
      6 C14         24.8890    -9.5930    13.4250 ca         1 97S      -0.252000
      7 C17         27.2620    -9.9740    13.3210 ca         1 97S      -0.172000
      8 C18         28.4870   -10.4960    13.8450 cg         1 97S       0.334000
      9 N4          29.4790   -10.9330    14.2780 n1         1 97S      -0.451000
     10 C13         26.0460   -10.1190    14.0040 ca         1 97S       0.421000
     11 N2          25.9640   -10.8060    15.2220 nu         1 97S      -0.971000
     12 C1          25.0740   -10.7450    16.3020 ca         1 97S       0.232000
     13 C2          24.3580    -9.5730    16.6010 ca         1 97S      -0.078000
     14 C3          23.4650    -9.5070    17.7040 ca         1 97S      -0.131800
     15 C8          22.7660    -8.2500    18.0250 cc         1 97S       0.208800
     16 C9          21.7540    -6.4700    16.5430 c3         1 97S       0.195800
     17 C10         22.0440    -4.9640    16.4320 c3         1 97S      -0.099100
     18 C7          22.0520    -8.1950    19.2140 cd         1 97S      -0.215400
     19 C11         21.4100    -6.9220    19.7560 c3         1 97S      -0.032900
     20 C6          21.8370    -9.3950    20.0780 c          1 97S       0.571200
     21 O           21.1760    -9.3480    21.1110 o          1 97S      -0.550000
     22 N           22.4130   -10.6020    19.6340 n          1 97S      -0.280000
     23 C12         22.0380   -11.8620    20.3320 c3         1 97S       0.068300
     24 C5          24.0550   -11.8130    18.2310 ca         1 97S      -0.148000
     25 C           24.9390   -11.8550    17.1430 ca         1 97S      -0.079000
     26 H1          23.7370    -7.1800    16.6170 hn         1 97S       0.448000
     27 H2          24.0890    -8.5060    11.7320 h4         1 97S       0.027100
     28 H3          23.9210    -9.7140    13.8960 ha         1 97S       0.138000
     29 H4          26.7070   -11.4980    15.3420 hn         1 97S       0.514000
     30 H5          24.5300    -8.7050    15.9770 ha         1 97S       0.122000
     31 H6          20.8310    -6.6230    17.1160 h1         1 97S       0.040200
     32 H7          21.5880    -6.8770    15.5370 h1         1 97S       0.040200
     33 H8          21.1990    -4.4520    15.9570 hc         1 97S       0.043367
     34 H9          22.2000    -4.5220    17.4220 hc         1 97S       0.043367
     35 H10         22.9390    -4.7840    15.8240 hc         1 97S       0.043367
     36 H11         21.4950    -6.8490    20.8470 hc         1 97S       0.050367
     37 H12         21.8870    -6.0180    19.3630 hc         1 97S       0.050367
     38 H13         20.3450    -6.8780    19.5010 hc         1 97S       0.050367
     39 H14         21.1160   -11.7440    20.9140 h1         1 97S       0.056700
     40 H15         21.8610   -12.6590    19.5990 h1         1 97S       0.056700
     41 H16         22.8480   -12.1640    21.0080 h1         1 97S       0.056700
     42 H17         23.9930   -12.6920    18.8660 ha         1 97S       0.130000
     43 H18         25.5150   -12.7570    16.9520 ha         1 97S       0.126000
     44 Cl          28.7320    -9.0300    11.1650 cl         1 97S      -0.143000
@<TRIPOS>BOND
     1     1    14 ar  
     2     1    22 1   
     3     1    24 ar  
     4     2    15 1   
     5     2    16 1   
     6     2    26 1   
     7     3     4 ar  
     8     3     7 ar  
     9     3    44 1   
    10     4     5 ar  
    11     5     6 ar  
    12     5    27 1   
    13     6    10 ar  
    14     6    28 1   
    15     7     8 1   
    16     7    10 ar  
    17     8     9 3   
    18    10    11 1   
    19    11    12 1   
    20    11    29 1   
    21    12    13 ar  
    22    12    25 ar  
    23    13    14 ar  
    24    13    30 1   
    25    14    15 1   
    26    15    18 2   
    27    16    17 1   
    28    16    31 1   
    29    16    32 1   
    30    17    33 1   
    31    17    34 1   
    32    17    35 1   
    33    18    19 1   
    34    18    20 1   
    35    19    36 1   
    36    19    37 1   
    37    19    38 1   
    38    20    21 2   
    39    20    22 1   
    40    22    23 1   
    41    23    39 1   
    42    23    40 1   
    43    23    41 1   
    44    24    25 ar  
    45    24    42 1   
    46    25    43 1   
@<TRIPOS>SUBSTRUCTURE
     1 97S         1 TEMP              0 ****  ****    0 ROOT
