@<TRIPOS>MOLECULE
97T
   19    20     1     0     0
SMALL
bcc


@<TRIPOS>ATOM
      1 O01          0.4210    -2.1110     0.0840 oh         1 97T      -0.471100
      2 C02          1.0940    -0.9540    -0.0120 ca         1 97T       0.180100
      3 C03          2.4850    -0.9170    -0.0920 ca         1 97T      -0.234000
      4 C04          3.1540     0.2930    -0.1590 ca         1 97T      -0.065000
      5 C05          2.4470     1.4890    -0.1480 ca         1 97T      -0.173000
      6 C06          1.0670     1.4550    -0.0750 ca         1 97T      -0.063000
      7 C07          0.3680     0.2470    -0.0090 ca         1 97T      -0.188500
      8 C08         -1.0860     0.2960     0.0900 cc         1 97T       0.364200
      9 O09         -1.8230    -0.6920    -0.4270 os         1 97T      -0.096100
     10 N10         -3.1470    -0.4250    -0.2550 nc         1 97T      -0.364300
     11 C11         -3.2040     0.7190     0.3600 cd         1 97T       0.324200
     12 C12         -1.9170     1.2380     0.6150 cd         1 97T      -0.404600
     13 H1           1.0340    -2.8550     0.0980 ho         1 97T       0.430000
     14 H2           3.0450    -1.8450    -0.0960 ha         1 97T       0.136000
     15 H3           4.2340     0.2980    -0.2200 ha         1 97T       0.135000
     16 H4           2.9650     2.4360    -0.2060 ha         1 97T       0.140000
     17 H5           0.5070     2.3820    -0.0840 ha         1 97T       0.139000
     18 H6          -4.1630     1.1460     0.6120 h4         1 97T       0.042100
     19 H7          -1.6570     2.1520     1.1210 ha         1 97T       0.169000
@<TRIPOS>BOND
     1     1     2 1   
     2     1    13 1   
     3     2     3 ar  
     4     2     7 ar  
     5     3     4 ar  
     6     3    14 1   
     7     4     5 ar  
     8     4    15 1   
     9     5     6 ar  
    10     5    16 1   
    11     6     7 ar  
    12     6    17 1   
    13     7     8 1   
    14     8     9 1   
    15     8    12 2   
    16     9    10 1   
    17    10    11 2   
    18    11    12 1   
    19    11    18 1   
    20    12    19 1   
@<TRIPOS>SUBSTRUCTURE
     1 97T         1 TEMP              0 ****  ****    0 ROOT
