@<TRIPOS>MOLECULE
97T
   19    20     1     0     0
SMALL
No Charge or Current Charge


@<TRIPOS>ATOM
      1 O01          0.4780    -2.1780     0.0890 oh         1 97T      -0.510100
      2 C02          1.0940    -0.9660    -0.0050 ca         1 97T       0.180100
      3 C03          2.4970    -0.9260    -0.0680 ca         1 97T      -0.216000
      4 C04          3.1690     0.3040    -0.1420 ca         1 97T      -0.047000
      5 C05          2.4340     1.4980    -0.1510 ca         1 97T      -0.155000
      6 C06          1.0310     1.4650    -0.0870 ca         1 97T      -0.045000
      7 C07          0.3430     0.2330    -0.0150 ca         1 97T      -0.188500
      8 C08         -1.1230     0.2280     0.0450 cc         1 97T       0.254500
      9 O09         -1.9180    -0.7440    -0.5110 os         1 97T      -0.051700
     10 N10         -3.2980    -0.3700    -0.2740 nc         1 97T      -0.364300
     11 C11         -3.2210     0.7770     0.3860 cd         1 97T       0.258900
     12 C12         -1.8950     1.1940     0.6040 cd         1 97T      -0.256000
     13 H1           1.1690    -2.8740     0.0870 ho         1 97T       0.469000
     14 H2           3.0750    -1.8470    -0.0570 ha         1 97T       0.118000
     15 H3           4.2560     0.3320    -0.1910 ha         1 97T       0.117000
     16 H4           2.9520     2.4530    -0.2090 ha         1 97T       0.122000
     17 H5           0.4810     2.4040    -0.1050 ha         1 97T       0.121000
     18 H6          -4.1330     1.2760     0.6860 h4         1 97T       0.042100
     19 H7          -1.5670     2.0910     1.1150 ha         1 97T       0.151000
@<TRIPOS>BOND
     1     1     2 1   
     2     1    13 1   
     3     2     3 ar  
     4     2     7 ar  
     5     3     4 ar  
     6     3    14 1   
     7     4     5 ar  
     8     4    15 1   
     9     5     6 ar  
    10     5    16 1   
    11     6     7 ar  
    12     6    17 1   
    13     7     8 1   
    14     8     9 1   
    15     8    12 2   
    16     9    10 1   
    17    10    11 2   
    18    11    12 1   
    19    11    18 1   
    20    12    19 1   
@<TRIPOS>SUBSTRUCTURE
     1 97T         1 TEMP              0 ****  ****    0 ROOT
