@<TRIPOS>MOLECULE
97U
   45    47     1     0     0
SMALL
bcc


@<TRIPOS>ATOM
      1 CD1         17.6690     5.7810    22.8880 ca         1 97U      -0.115500
      2 CE1         16.7650     6.4010    23.7400 ca         1 97U      -0.139000
      3 CZ          15.5240     6.8070    23.2680 ca         1 97U      -0.150000
      4 CE2         15.1950     6.5790    21.9380 ca         1 97U      -0.139000
      5 CD2         16.1000     5.9500    21.0930 ca         1 97U      -0.115500
      6 CG          17.3520     5.5430    21.5530 ca         1 97U      -0.027300
      7 CB          18.3040     4.8210    20.6370 c3         1 97U      -0.018100
      8 CA          18.7940     5.6590    19.4430 c3         1 97U      -0.037300
      9 C           19.9670     6.6360    19.7730 c          1 97U       0.940600
     10 O           20.6800     6.9810    18.8160 o          1 97U      -0.811800
     11 OXT         20.0360     7.0150    20.9540 o          1 97U      -0.811800
     12 N           19.0940     4.8370    18.2820 ns         1 97U      -0.487900
     13 CAN         20.1320     4.0160    18.2310 c          1 97U       0.690700
     14 OAX         20.8210     3.7780    19.2400 o          1 97U      -0.636100
     15 CAA         20.4550     3.3270    16.9520 ca         1 97U      -0.262600
     16 CAB         19.9030     3.7040    15.7360 ca         1 97U      -0.012000
     17 CAC         20.1970     3.0170    14.5750 ca         1 97U      -0.057600
     18 CLA         19.4750     3.5480    13.0910 cl         1 97U      -0.129400
     19 CAD         21.0560     1.9260    14.5910 ca         1 97U       0.016700
     20 CAG         21.3480     1.1030    13.3770 c6         1 97U      -0.077100
     21 CAH         21.6230    -0.3250    13.7960 c6         1 97U       0.172100
     22 CAL         22.0300    -1.2130    12.6450 c3         1 97U      -0.091100
     23 OAI         22.6950    -0.3460    14.7520 os         1 97U      -0.436900
     24 CAJ         22.7220     0.5180    15.7650 c          1 97U       0.767200
     25 OAK         23.6090     0.4150    16.5720 o          1 97U      -0.554500
     26 CAE         21.6780     1.5730    15.7910 ca         1 97U      -0.272600
     27 CAF         21.3920     2.2670    16.9840 ca         1 97U       0.290100
     28 OBB         21.9710     1.9110    18.1100 oh         1 97U      -0.497100
     29 HD1         18.6350     5.4710    23.2670 ha         1 97U       0.129500
     30 HE1         17.0330     6.5700    24.7760 ha         1 97U       0.113000
     31 HZ          14.8190     7.2930    23.9300 ha         1 97U       0.110000
     32 HE2         14.2290     6.8860    21.5580 ha         1 97U       0.113000
     33 HD2         15.8210     5.7660    20.0610 ha         1 97U       0.129500
     34 HB1         17.7810     3.9450    20.2400 hc         1 97U       0.044700
     35 HB2         19.1500     4.4440    21.2100 hc         1 97U       0.044700
     36 HAM         17.9610     6.2870    19.1150 h1         1 97U       0.033700
     37 H           18.5350     4.9860    17.4600 hn         1 97U       0.299500
     38 HAB         19.2340     4.5510    15.6680 ha         1 97U       0.147000
     39 HAG         22.2050     1.5150    12.8320 hc         1 97U       0.072700
     40 HAH         20.5010     1.1160    12.6910 hc         1 97U       0.072700
     41 HAI         20.7280    -0.7310    14.2800 h1         1 97U       0.050700
     42 HA1         22.2380    -2.2280    12.9830 hc         1 97U       0.045700
     43 HA2         21.2200    -1.2640    11.9180 hc         1 97U       0.045700
     44 HA3         22.9150    -0.8240    12.1400 hc         1 97U       0.045700
     45 H2          21.6630     2.5730    18.8000 ho         1 97U       0.507000
@<TRIPOS>BOND
     1     1     2 ar  
     2     1     6 ar  
     3     1    29 1   
     4     2     3 ar  
     5     2    30 1   
     6     3     4 ar  
     7     3    31 1   
     8     4     5 ar  
     9     4    32 1   
    10     5     6 ar  
    11     5    33 1   
    12     6     7 1   
    13     7     8 1   
    14     7    34 1   
    15     7    35 1   
    16     8     9 1   
    17     8    12 1   
    18     8    36 1   
    19     9    10 1   
    20     9    11 1   
    21    12    13 1   
    22    12    37 1   
    23    13    14 2   
    24    13    15 1   
    25    15    16 ar  
    26    15    27 ar  
    27    16    17 ar  
    28    16    38 1   
    29    17    18 1   
    30    17    19 ar  
    31    19    20 1   
    32    19    26 ar  
    33    20    21 1   
    34    20    39 1   
    35    20    40 1   
    36    21    22 1   
    37    21    23 1   
    38    21    41 1   
    39    22    42 1   
    40    22    43 1   
    41    22    44 1   
    42    23    24 1   
    43    24    25 2   
    44    24    26 1   
    45    26    27 ar  
    46    27    28 1   
    47    28    45 1   
@<TRIPOS>SUBSTRUCTURE
     1 97U         1 TEMP              0 ****  ****    0 ROOT
