@<TRIPOS>MOLECULE
97U
   45    47     1     0     0
SMALL
No Charge or Current Charge


@<TRIPOS>ATOM
      1 CD1         17.6210     5.8470    22.8820 ca         1 97U      -0.097500
      2 CE1         16.7800     6.5750    23.7420 ca         1 97U      -0.121000
      3 CZ          15.5420     7.0500    23.2800 ca         1 97U      -0.132000
      4 CE2         15.1440     6.7960    21.9570 ca         1 97U      -0.121000
      5 CD2         15.9850     6.0680    21.0970 ca         1 97U      -0.097500
      6 CG          17.2300     5.5910    21.5530 ca         1 97U      -0.027300
      7 CB          18.1360     4.7970    20.6170 c3         1 97U      -0.018100
      8 CA          18.7610     5.6740    19.4960 c3         1 97U      -0.037300
      9 C           19.8940     6.6470    19.9710 c          1 97U       0.730000
     10 O           20.2000     7.5620    19.2170 o          1 97U      -0.706500
     11 OXT         20.4120     6.4920    21.0690 o          1 97U      -0.706500
     12 N           19.2150     4.8700    18.3310 ns         1 97U      -0.420900
     13 CAN         20.1860     3.8890    18.3520 c          1 97U       0.623700
     14 OAX         20.7830     3.5950    19.3800 o          1 97U      -0.636100
     15 CAA         20.4880     3.1860    17.0450 ca         1 97U      -0.262600
     16 CAB         19.7920     3.5210    15.8610 ca         1 97U       0.006000
     17 CAC         20.0560     2.8550    14.6580 ca         1 97U       0.034000
     18 ClA         19.1400     3.3320    13.2250 cl         1 97U      -0.221000
     19 CAD         21.0330     1.8390    14.6080 ca         1 97U       0.016700
     20 CAG         21.3090     1.0610    13.3260 c6         1 97U      -0.077100
     21 CAH         21.7410    -0.3670    13.6830 c6         1 97U       0.195300
     22 CAL         22.1610    -1.1990    12.4480 c3         1 97U      -0.091100
     23 OAI         22.8620    -0.3360    14.5750 os         1 97U      -0.460100
     24 CAJ         22.8870     0.4830    15.6780 c          1 97U       0.691700
     25 OAK         23.8760     0.5020    16.3950 o          1 97U      -0.479000
     26 CAE         21.7720     1.5130    15.7680 ca         1 97U      -0.272600
     27 CAF         21.4800     2.1760    16.9830 ca         1 97U       0.290100
     28 OBB         22.1360     1.8260    18.1210 oh         1 97U      -0.536100
     29 HD1         18.5790     5.4850    23.2490 ha         1 97U       0.111500
     30 HE1         17.0890     6.7710    24.7670 ha         1 97U       0.095000
     31 HZ          14.8910     7.6130    23.9450 ha         1 97U       0.092000
     32 HE2         14.1850     7.1620    21.5980 ha         1 97U       0.095000
     33 HD2         15.6680     5.8730    20.0750 ha         1 97U       0.111500
     34 HB1         17.5390     4.0060    20.1480 hc         1 97U       0.044700
     35 HB2         18.9230     4.2800    21.1790 hc         1 97U       0.044700
     36 HAM         17.9590     6.3170    19.1130 h1         1 97U       0.033700
     37 H           18.7910     5.0650    17.4350 hn         1 97U       0.299500
     38 HAB         19.0280     4.2940    15.8480 ha         1 97U       0.129000
     39 HAG         22.0920     1.5650    12.7440 hc         1 97U       0.072700
     40 HAH         20.4190     1.0060    12.6870 hc         1 97U       0.072700
     41 HAI         20.9090    -0.8790    14.1890 h1         1 97U       0.050700
     42 HA1         22.4620    -2.2120    12.7400 hc         1 97U       0.045700
     43 HA2         21.3320    -1.2920    11.7370 hc         1 97U       0.045700
     44 HA3         23.0040    -0.7340    11.9220 hc         1 97U       0.045700
     45 H2          21.7670     2.4210    18.8310 ho         1 97U       0.546000
@<TRIPOS>BOND
     1     1     2 ar  
     2     1     6 ar  
     3     1    29 1   
     4     2     3 ar  
     5     2    30 1   
     6     3     4 ar  
     7     3    31 1   
     8     4     5 ar  
     9     4    32 1   
    10     5     6 ar  
    11     5    33 1   
    12     6     7 1   
    13     7     8 1   
    14     7    34 1   
    15     7    35 1   
    16     8     9 1   
    17     8    12 1   
    18     8    36 1   
    19     9    10 1   
    20     9    11 1   
    21    12    13 1   
    22    12    37 1   
    23    13    14 2   
    24    13    15 1   
    25    15    16 ar  
    26    15    27 ar  
    27    16    17 ar  
    28    16    38 1   
    29    17    18 1   
    30    17    19 ar  
    31    19    20 1   
    32    19    26 ar  
    33    20    21 1   
    34    20    39 1   
    35    20    40 1   
    36    21    22 1   
    37    21    23 1   
    38    21    41 1   
    39    22    42 1   
    40    22    43 1   
    41    22    44 1   
    42    23    24 1   
    43    24    25 2   
    44    24    26 1   
    45    26    27 ar  
    46    27    28 1   
    47    28    45 1   
@<TRIPOS>SUBSTRUCTURE
     1 97U         1 TEMP              0 ****  ****    0 ROOT
