@<TRIPOS>MOLECULE
97V
   72    76     1     0     0
SMALL
No Charge or Current Charge


@<TRIPOS>ATOM
      1 CAA         23.1800   -20.4430   -27.9150 c3         1 97V      -0.340100
      2 CAE         21.7360   -21.9130   -29.8410 ca         1 97V      -0.240500
      3 CAF         21.4700   -21.1900   -31.0220 ca         1 97V      -0.046000
      4 CAG         21.6240   -21.8100   -32.2720 ca         1 97V      -0.096000
      5 CAH         22.0460   -23.1470   -32.3490 ca         1 97V      -0.122000
      6 CAI         22.3210   -23.8830   -31.1810 ca         1 97V      -0.019000
      7 CAK         23.1290   -26.2190   -30.4530 c          1 97V       0.662100
      8 CAN         23.5820   -28.6390   -30.1390 c3         1 97V       0.162300
      9 CAO         22.2710   -29.1020   -29.4950 ca         1 97V      -0.056300
     10 CAP         21.0140   -28.8190   -30.0690 ca         1 97V      -0.111500
     11 CAQ         19.8280   -29.2610   -29.4570 ca         1 97V      -0.055000
     12 CAR         19.8710   -30.0020   -28.2500 ca         1 97V      -0.160600
     13 CAS         18.6200   -30.5000   -27.5530 c          1 97V       0.637700
     14 CAV         16.1690   -30.5400   -27.7040 cc         1 97V       0.523400
     15 NAJ         22.7470   -25.2290   -31.3490 ns         1 97V      -0.159000
     16 NAM         23.4810   -27.4640   -31.0400 n          1 97V      -0.262400
     17 NAU         17.4190   -30.2010   -28.1430 ns         1 97V      -0.478400
     18 NAW         15.8240   -31.2450   -26.5950 na         1 97V      -0.233700
     19 NAX         14.4750   -31.3690   -26.5120 nc         1 97V      -0.194800
     20 NAY         14.0300   -30.7410   -27.5680 nd         1 97V      -0.031000
     21 NAZ         15.0580   -30.2190   -28.3220 nd         1 97V      -0.437000
     22 OAC         21.3200   -22.1480   -27.2090 o          1 97V      -0.526500
     23 OAD         20.6420   -19.9670   -28.3650 o          1 97V      -0.526500
     24 OAL         23.1380   -26.0550   -29.2380 o          1 97V      -0.608100
     25 OAT         18.6740   -31.1410   -26.5120 o          1 97V      -0.593100
     26 SAB         21.5480   -21.1150   -28.2280 sy         1 97V       1.076500
     27 CBA         21.1350   -30.2830   -27.6830 ca         1 97V      -0.055000
     28 CBB         22.3170   -29.8390   -28.2990 ca         1 97V      -0.111500
     29 CBC         23.6800   -27.6870   -32.4570 ca         1 97V      -0.065000
     30 CBD         22.9820   -28.7270   -33.1060 ca         1 97V      -0.123500
     31 CBE         23.0330   -28.8680   -34.5030 ca         1 97V      -0.095000
     32 CBF         23.7490   -27.9460   -35.2900 ca         1 97V      -0.067300
     33 CBG         23.8080   -28.0870   -36.8190 c6         1 97V      -0.021400
     34 CBH         24.4750   -29.4220   -37.2540 c6         1 97V      -0.067900
     35 CBI         24.5490   -29.5420   -38.7970 c6         1 97V      -0.074400
     36 CBJ         23.1470   -29.3940   -39.4390 c6         1 97V      -0.076400
     37 CBK         22.4730   -28.0670   -39.0090 c6         1 97V      -0.074400
     38 CBL         22.4010   -27.9490   -37.4660 c6         1 97V      -0.067900
     39 CBM         24.3990   -26.8730   -34.6550 ca         1 97V      -0.095000
     40 CBN         24.3460   -26.7330   -33.2570 ca         1 97V      -0.123500
     41 CBO         22.1640   -23.2580   -29.9230 ca         1 97V      -0.055000
     42 H1          23.1590   -19.9350   -26.9450 h1         1 97V       0.103033
     43 H2          23.8940   -21.2730   -27.9040 h1         1 97V       0.103033
     44 H3          23.4180   -19.7380   -28.7180 h1         1 97V       0.103033
     45 H4          21.1440   -20.1510   -30.9780 ha         1 97V       0.144000
     46 H5          21.4170   -21.2520   -33.1820 ha         1 97V       0.122000
     47 H6          22.1620   -23.6130   -33.3260 ha         1 97V       0.114000
     48 H7          24.0130   -29.4810   -30.6950 h1         1 97V       0.073200
     49 H8          24.3010   -28.3970   -29.3440 h1         1 97V       0.073200
     50 H9          20.9440   -28.2520   -30.9940 ha         1 97V       0.123500
     51 H10         18.8860   -29.0140   -29.9400 ha         1 97V       0.127500
     52 H11         22.7740   -25.5310   -32.3140 hn         1 97V       0.160000
     53 H12         17.4670   -29.6700   -28.9970 hn         1 97V       0.361500
     54 H13         16.4630   -31.6320   -25.9120 hn         1 97V       0.413000
     55 H14         21.2080   -30.8510   -26.7580 ha         1 97V       0.127500
     56 H15         23.2750   -30.0720   -27.8400 ha         1 97V       0.123500
     57 H16         22.3960   -29.4400   -32.5330 ha         1 97V       0.126500
     58 H17         22.5010   -29.6920   -34.9730 ha         1 97V       0.121500
     59 H18         24.4290   -27.2700   -37.2140 hc         1 97V       0.052700
     60 H19         23.9140   -30.2770   -36.8510 hc         1 97V       0.041700
     61 H20         25.4860   -29.4870   -36.8300 hc         1 97V       0.041700
     62 H21         24.9860   -30.5110   -39.0750 hc         1 97V       0.041700
     63 H22         25.2230   -28.7700   -39.1960 hc         1 97V       0.041700
     64 H23         22.5150   -30.2430   -39.1450 hc         1 97V       0.041200
     65 H24         23.2320   -29.4320   -40.5330 hc         1 97V       0.041200
     66 H25         23.0340   -27.2170   -39.4200 hc         1 97V       0.041700
     67 H26         21.4620   -28.0080   -39.4350 hc         1 97V       0.041700
     68 H27         21.9600   -26.9810   -37.1910 hc         1 97V       0.041700
     69 H28         21.7250   -28.7210   -37.0740 hc         1 97V       0.041700
     70 H29         24.9450   -26.1370   -35.2420 ha         1 97V       0.121500
     71 H30         24.8630   -25.8930   -32.7970 ha         1 97V       0.126500
     72 H31         22.3670   -23.7990   -29.0030 ha         1 97V       0.168000
@<TRIPOS>BOND
     1     1    26 1   
     2     1    42 1   
     3     1    43 1   
     4     1    44 1   
     5     2     3 ar  
     6     2    26 1   
     7     2    41 ar  
     8     3     4 ar  
     9     3    45 1   
    10     4     5 ar  
    11     4    46 1   
    12     5     6 ar  
    13     5    47 1   
    14     6    15 1   
    15     6    41 ar  
    16     7    15 1   
    17     7    16 1   
    18     7    24 2   
    19     8     9 1   
    20     8    16 1   
    21     8    48 1   
    22     8    49 1   
    23     9    10 ar  
    24     9    28 ar  
    25    10    11 ar  
    26    10    50 1   
    27    11    12 ar  
    28    11    51 1   
    29    12    13 1   
    30    12    27 ar  
    31    13    17 1   
    32    13    25 2   
    33    14    17 1   
    34    14    18 1   
    35    14    21 2   
    36    15    52 1   
    37    16    29 1   
    38    17    53 1   
    39    18    19 1   
    40    18    54 1   
    41    19    20 2   
    42    20    21 1   
    43    22    26 2   
    44    23    26 2   
    45    27    28 ar  
    46    27    55 1   
    47    28    56 1   
    48    29    30 ar  
    49    29    40 ar  
    50    30    31 ar  
    51    30    57 1   
    52    31    32 ar  
    53    31    58 1   
    54    32    33 1   
    55    32    39 ar  
    56    33    34 1   
    57    33    38 1   
    58    33    59 1   
    59    34    35 1   
    60    34    60 1   
    61    34    61 1   
    62    35    36 1   
    63    35    62 1   
    64    35    63 1   
    65    36    37 1   
    66    36    64 1   
    67    36    65 1   
    68    37    38 1   
    69    37    66 1   
    70    37    67 1   
    71    38    68 1   
    72    38    69 1   
    73    39    40 ar  
    74    39    70 1   
    75    40    71 1   
    76    41    72 1   
@<TRIPOS>SUBSTRUCTURE
     1 97V         1 TEMP              0 ****  ****    0 ROOT
