@<TRIPOS>MOLECULE
97V
   72    76     1     0     0
SMALL
abcg2


@<TRIPOS>ATOM
      1 CAA         23.4270   -20.8540   -27.8810 c3         1 97V      -0.340100
      2 CAE         21.7300   -21.8150   -29.9010 ca         1 97V      -0.240500
      3 CAF         21.4680   -21.0060   -30.9980 ca         1 97V      -0.046000
      4 CAG         21.4910   -21.5930   -32.2600 ca         1 97V      -0.096000
      5 CAH         21.7830   -22.9380   -32.4060 ca         1 97V      -0.122000
      6 CAI         22.0560   -23.7440   -31.2900 ca         1 97V      -0.019000
      7 CAK         22.7390   -26.0500   -30.6330 c          1 97V       0.662100
      8 CAN         23.3170   -28.3680   -30.2670 c3         1 97V       0.162300
      9 CAO         22.0770   -28.9230   -29.6030 ca         1 97V      -0.056300
     10 CAP         20.7910   -28.6220   -30.0440 ca         1 97V      -0.111500
     11 CAQ         19.6800   -29.1760   -29.4230 ca         1 97V      -0.055000
     12 CAR         19.8360   -30.0490   -28.3450 ca         1 97V      -0.160600
     13 CAS         18.6980   -30.6960   -27.6490 c          1 97V       0.637700
     14 CAV         16.3030   -30.5840   -27.2730 cc         1 97V       0.523400
     15 NAJ         22.3450   -25.0870   -31.5340 ns         1 97V      -0.159000
     16 NAM         23.0840   -27.2610   -31.1880 n          1 97V      -0.262400
     17 NAU         17.4630   -30.1030   -27.8120 ns         1 97V      -0.478400
     18 NAW         16.1680   -31.6790   -26.5150 na         1 97V      -0.233700
     19 NAX         14.8670   -31.8100   -26.1870 nc         1 97V      -0.194800
     20 NAY         14.2550   -30.8200   -26.7340 nd         1 97V      -0.031000
     21 NAZ         15.1110   -30.0280   -27.4240 nd         1 97V      -0.437000
     22 OAC         21.1730   -22.0830   -27.3440 o          1 97V      -0.526500
     23 OAD         21.0680   -19.8040   -28.3440 o          1 97V      -0.526500
     24 OAL         22.7550   -25.8750   -29.4170 o          1 97V      -0.608100
     25 OAT         18.8220   -31.6990   -26.9570 o          1 97V      -0.593100
     26 SAB         21.7120   -21.1030   -28.2710 sy         1 97V       1.076500
     27 CBA         21.1270   -30.3580   -27.9050 ca         1 97V      -0.055000
     28 CBB         22.2300   -29.7940   -28.5210 ca         1 97V      -0.111500
     29 CBC         23.2880   -27.4720   -32.5850 ca         1 97V      -0.065000
     30 CBD         22.5450   -28.4360   -33.2650 ca         1 97V      -0.123500
     31 CBE         22.7650   -28.6610   -34.6160 ca         1 97V      -0.095000
     32 CBF         23.7150   -27.9240   -35.3310 ca         1 97V      -0.067300
     33 CBG         23.9460   -28.1600   -36.8030 c6         1 97V      -0.021400
     34 CBH         24.4570   -29.5840   -37.0860 c6         1 97V      -0.067900
     35 CBI         24.7020   -29.8100   -38.5780 c6         1 97V      -0.074400
     36 CBJ         23.4490   -29.5100   -39.4030 c6         1 97V      -0.076400
     37 CBK         22.9340   -28.0960   -39.1310 c6         1 97V      -0.074400
     38 CBL         22.6870   -27.8670   -37.6390 c6         1 97V      -0.067900
     39 CBM         24.4510   -26.9650   -34.6350 ca         1 97V      -0.095000
     40 CBN         24.2550   -26.7460   -33.2760 ca         1 97V      -0.123500
     41 CBO         22.0210   -23.1710   -30.0180 ca         1 97V      -0.055000
     42 H1          23.4550   -20.4130   -26.8850 h1         1 97V       0.103033
     43 H2          23.9320   -21.8180   -27.8940 h1         1 97V       0.103033
     44 H3          23.8540   -20.1760   -28.6190 h1         1 97V       0.103033
     45 H4          21.2440   -19.9580   -30.8690 ha         1 97V       0.144000
     46 H5          21.2820   -20.9940   -33.1370 ha         1 97V       0.122000
     47 H6          21.8030   -23.3820   -33.3950 ha         1 97V       0.114000
     48 H7          23.7980   -29.1610   -30.8400 h1         1 97V       0.073200
     49 H8          24.0220   -28.0560   -29.4960 h1         1 97V       0.073200
     50 H9          20.6470   -27.9510   -30.8790 ha         1 97V       0.123500
     51 H10         18.7010   -28.9350   -29.8160 ha         1 97V       0.127500
     52 H11         22.3180   -25.3600   -32.5050 hn         1 97V       0.160000
     53 H12         17.3760   -29.2360   -28.3220 hn         1 97V       0.361500
     54 H13         16.8900   -32.3190   -26.2120 hn         1 97V       0.413000
     55 H14         21.2530   -31.0330   -27.0700 ha         1 97V       0.127500
     56 H15         23.2240   -30.0290   -28.1610 ha         1 97V       0.123500
     57 H16         21.7970   -29.0120   -32.7370 ha         1 97V       0.126500
     58 H17         22.1780   -29.4160   -35.1220 ha         1 97V       0.121500
     59 H18         24.7240   -27.4610   -37.1270 hc         1 97V       0.052700
     60 H19         23.7150   -30.3060   -36.7280 hc         1 97V       0.041700
     61 H20         25.3730   -29.7610   -36.5170 hc         1 97V       0.041700
     62 H21         25.0320   -30.8380   -38.7490 hc         1 97V       0.041700
     63 H22         25.5170   -29.1580   -38.9120 hc         1 97V       0.041700
     64 H23         22.6670   -30.2330   -39.1430 hc         1 97V       0.041200
     65 H24         23.6580   -29.6390   -40.4680 hc         1 97V       0.041200
     66 H25         23.6740   -27.3690   -39.4880 hc         1 97V       0.041700
     67 H26         22.0150   -27.9120   -39.6930 hc         1 97V       0.041700
     68 H27         22.3620   -26.8380   -37.4590 hc         1 97V       0.041700
     69 H28         21.8750   -28.5190   -37.3020 hc         1 97V       0.041700
     70 H29         25.2020   -26.3870   -35.1610 ha         1 97V       0.121500
     71 H30         24.8520   -26.0110   -32.7510 ha         1 97V       0.126500
     72 H31         22.2090   -23.7730   -29.1470 ha         1 97V       0.168000
@<TRIPOS>BOND
     1     1    26 1   
     2     1    42 1   
     3     1    43 1   
     4     1    44 1   
     5     2     3 ar  
     6     2    26 1   
     7     2    41 ar  
     8     3     4 ar  
     9     3    45 1   
    10     4     5 ar  
    11     4    46 1   
    12     5     6 ar  
    13     5    47 1   
    14     6    15 1   
    15     6    41 ar  
    16     7    15 1   
    17     7    16 1   
    18     7    24 2   
    19     8     9 1   
    20     8    16 1   
    21     8    48 1   
    22     8    49 1   
    23     9    10 ar  
    24     9    28 ar  
    25    10    11 ar  
    26    10    50 1   
    27    11    12 ar  
    28    11    51 1   
    29    12    13 1   
    30    12    27 ar  
    31    13    17 1   
    32    13    25 2   
    33    14    17 1   
    34    14    18 1   
    35    14    21 2   
    36    15    52 1   
    37    16    29 1   
    38    17    53 1   
    39    18    19 1   
    40    18    54 1   
    41    19    20 2   
    42    20    21 1   
    43    22    26 2   
    44    23    26 2   
    45    27    28 ar  
    46    27    55 1   
    47    28    56 1   
    48    29    30 ar  
    49    29    40 ar  
    50    30    31 ar  
    51    30    57 1   
    52    31    32 ar  
    53    31    58 1   
    54    32    33 1   
    55    32    39 ar  
    56    33    34 1   
    57    33    38 1   
    58    33    59 1   
    59    34    35 1   
    60    34    60 1   
    61    34    61 1   
    62    35    36 1   
    63    35    62 1   
    64    35    63 1   
    65    36    37 1   
    66    36    64 1   
    67    36    65 1   
    68    37    38 1   
    69    37    66 1   
    70    37    67 1   
    71    38    68 1   
    72    38    69 1   
    73    39    40 ar  
    74    39    70 1   
    75    40    71 1   
    76    41    72 1   
@<TRIPOS>SUBSTRUCTURE
     1 97V         1 TEMP              0 ****  ****    0 ROOT
