@<TRIPOS>MOLECULE
97W
   21    22     1     0     0
SMALL
No Charge or Current Charge


@<TRIPOS>ATOM
      1 C10        184.2060   285.5010   108.7460 ca         1 97W      -0.066000
      2 O01        184.9770   286.0950   111.4380 oh         1 97W      -0.520100
      3 C02        185.3450   284.9210   110.8490 ca         1 97W       0.193100
      4 C03        186.1080   284.0000   111.5710 ca         1 97W      -0.279000
      5 C04        186.4800   282.7990   110.9580 ca         1 97W       0.392900
      6 N05        186.1330   282.4880   109.6900 nb         1 97W      -0.676000
      7 C06        185.3930   283.3710   108.9770 ca         1 97W       0.284000
      8 C07        185.0270   283.0550   107.6540 ca         1 97W      -0.035000
      9 C08        184.2560   283.9420   106.8670 ca         1 97W      -0.176300
     10 C09        183.8500   285.1680   107.4290 ca         1 97W      -0.091000
     11 C11        184.9750   284.6100   109.5240 ca         1 97W      -0.090000
     12 C12        183.8550   283.6010   105.4280 c3         1 97W       0.357300
     13 F13        184.3330   284.5150   104.5530 f          1 97W      -0.112000
     14 F14        182.5110   283.5790   105.2820 f          1 97W      -0.112000
     15 F15        184.3120   282.3950   105.0190 f          1 97W      -0.112000
     16 H1         183.8790   286.4550   109.1540 ha         1 97W       0.134000
     17 H2         185.3360   286.1080   112.3510 ho         1 97W       0.478000
     18 H3         186.4160   284.1960   112.5940 ha         1 97W       0.127000
     19 H4         187.0740   282.0610   111.4950 h4         1 97W       0.022100
     20 H5         185.3540   282.1020   107.2480 ha         1 97W       0.150000
     21 H6         183.2560   285.8680   106.8440 ha         1 97W       0.131000
@<TRIPOS>BOND
     1     1    10 ar  
     2     1    11 ar  
     3     1    16 1   
     4     2     3 1   
     5     2    17 1   
     6     3     4 ar  
     7     3    11 ar  
     8     4     5 ar  
     9     4    18 1   
    10     5     6 ar  
    11     5    19 1   
    12     6     7 ar  
    13     7     8 ar  
    14     7    11 ar  
    15     8     9 ar  
    16     8    20 1   
    17     9    10 ar  
    18     9    12 1   
    19    10    21 1   
    20    12    13 1   
    21    12    14 1   
    22    12    15 1   
@<TRIPOS>SUBSTRUCTURE
     1 97W         1 TEMP              0 ****  ****    0 ROOT
