@<TRIPOS>MOLECULE
97W
   21    22     1     0     0
SMALL
abcg2


@<TRIPOS>ATOM
      1 C10        184.1970   285.4940   108.7320 ca         1 97W      -0.066000
      2 O01        184.9620   286.0750   111.3580 oh         1 97W      -0.520100
      3 C02        185.3570   284.9080   110.8570 ca         1 97W       0.193100
      4 C03        186.1080   283.9830   111.5410 ca         1 97W      -0.279000
      5 C04        186.4580   282.7870   110.8950 ca         1 97W       0.392900
      6 N05        186.1240   282.4740   109.6700 nb         1 97W      -0.676000
      7 C06        185.3870   283.3750   108.9800 ca         1 97W       0.284000
      8 C07        185.0230   283.0550   107.6520 ca         1 97W      -0.035000
      9 C08        184.2800   283.9280   106.9070 ca         1 97W      -0.176300
     10 C09        183.8590   285.1610   107.4510 ca         1 97W      -0.091000
     11 C11        184.9680   284.6130   109.5210 ca         1 97W      -0.090000
     12 C12        183.8830   283.6130   105.4990 c3         1 97W       0.357300
     13 F13        184.3510   284.5300   104.6390 f          1 97W      -0.112000
     14 F14        182.5500   283.6050   105.3610 f          1 97W      -0.112000
     15 F15        184.3280   282.4250   105.0830 f          1 97W      -0.112000
     16 H1         183.8690   286.4400   109.1380 ha         1 97W       0.134000
     17 H2         185.2690   286.1890   112.2660 ho         1 97W       0.478000
     18 H3         186.4310   284.1600   112.5590 ha         1 97W       0.127000
     19 H4         187.0490   282.0590   111.4390 h4         1 97W       0.022100
     20 H5         185.3560   282.1030   107.2590 ha         1 97W       0.150000
     21 H6         183.2670   285.8490   106.8630 ha         1 97W       0.131000
@<TRIPOS>BOND
     1     1    10 ar  
     2     1    11 ar  
     3     1    16 1   
     4     2     3 1   
     5     2    17 1   
     6     3     4 ar  
     7     3    11 ar  
     8     4     5 ar  
     9     4    18 1   
    10     5     6 ar  
    11     5    19 1   
    12     6     7 ar  
    13     7     8 ar  
    14     7    11 ar  
    15     8     9 ar  
    16     8    20 1   
    17     9    10 ar  
    18     9    12 1   
    19    10    21 1   
    20    12    13 1   
    21    12    14 1   
    22    12    15 1   
@<TRIPOS>SUBSTRUCTURE
     1 97W         1 TEMP              0 ****  ****    0 ROOT
