@<TRIPOS>MOLECULE
97X
   49    53     1     0     0
SMALL
abcg2


@<TRIPOS>ATOM
      1 N1         -30.9290   -51.8910   -12.0270 n1         1 97X      -0.440000
      2 C4         -28.6160   -51.3130    -9.4700 ca         1 97X      -0.012000
      3 C7         -28.0310   -50.6840    -8.3440 ca         1 97X      -0.038000
      4 C8         -28.7180   -49.6240    -7.7100 ca         1 97X      -0.073000
      5 C10        -30.5500   -49.8220    -9.2660 ca         1 97X       0.017000
      6 N12        -32.9810   -50.0950    -9.7290 na         1 97X       0.153800
      7 C13        -33.1470   -51.4760    -9.3320 c3         1 97X       0.064900
      8 C15        -33.6130   -48.1890   -10.3740 cc         1 97X       0.254900
      9 C17        -31.4060   -46.8780   -10.2800 ca         1 97X       0.041000
     10 C20        -29.8570   -44.5720   -10.5890 ca         1 97X      -0.152600
     11 C21        -31.1770   -44.4690   -10.1360 ca         1 97X      -0.112900
     12 C22        -31.9380   -45.6310    -9.9830 ca         1 97X      -0.106000
     13 C11        -31.8600   -49.3410    -9.7130 cd         1 97X      -0.094000
     14 C16        -32.2340   -48.0710   -10.1270 cc         1 97X      -0.152000
     15 C18        -30.0810   -46.9580   -10.7400 ca         1 97X      -0.110000
     16 C19        -29.3170   -45.8240   -10.8880 ca         1 97X      -0.048000
     17 C2         -30.4650   -51.4230   -11.0820 cg         1 97X       0.316000
     18 C23        -31.6940   -43.1470    -9.8380 cc         1 97X       0.363900
     19 C27        -29.0530   -43.3630   -10.7520 c          1 97X       0.554600
     20 C29        -33.0940   -42.9850    -9.3150 c3         1 97X       0.132500
     21 C3         -29.8840   -50.8440    -9.9160 ca         1 97X       0.006000
     22 C31        -26.7730   -51.1300    -7.8780 ca         1 97X      -0.095000
     23 C32        -26.1260   -52.1580    -8.5050 ca         1 97X      -0.098000
     24 C33        -26.7100   -52.7820    -9.6250 ca         1 97X      -0.094000
     25 C34        -27.9250   -52.3700   -10.1010 ca         1 97X      -0.099000
     26 C9         -29.9410   -49.2060    -8.1540 ca         1 97X      -0.098000
     27 N14        -34.0430   -49.4100   -10.1330 nd         1 97X      -0.508800
     28 N24        -30.9760   -42.0940    -9.9800 nd         1 97X      -0.403300
     29 N25        -29.7180   -42.2200   -10.4210 ns         1 97X      -0.241900
     30 N30        -33.4720   -41.6010    -9.1390 n8         1 97X      -0.981200
     31 O28        -27.8950   -43.3390   -11.1430 o          1 97X      -0.546000
     32 H1         -28.2640   -49.1470    -6.8510 ha         1 97X       0.124000
     33 H2         -34.0480   -51.5650    -8.7320 h1         1 97X       0.064367
     34 H3         -33.2310   -52.1200   -10.2060 h1         1 97X       0.064367
     35 H4         -32.2980   -51.7950    -8.7350 h1         1 97X       0.064367
     36 H5         -34.2900   -47.4300   -10.7380 h4         1 97X       0.043100
     37 H6         -32.9520   -45.5680    -9.6110 ha         1 97X       0.120000
     38 H7         -29.6580   -47.9190   -11.0030 ha         1 97X       0.126000
     39 H8         -28.3000   -45.8980   -11.2470 ha         1 97X       0.141000
     40 H9         -33.7820   -43.4440   -10.0310 h1         1 97X       0.040200
     41 H10        -33.1750   -43.5940    -8.4010 h1         1 97X       0.040200
     42 H11        -26.3340   -50.6430    -7.0160 ha         1 97X       0.120000
     43 H12        -25.1650   -52.4980    -8.1430 ha         1 97X       0.120000
     44 H13        -26.1910   -53.5960   -10.1140 ha         1 97X       0.120000
     45 H14        -28.3560   -52.8640   -10.9630 ha         1 97X       0.127000
     46 H15        -30.4600   -48.4040    -7.6470 ha         1 97X       0.133000
     47 H16        -29.2210   -41.3440   -10.5070 hn         1 97X       0.353500
     48 H17        -34.4270   -41.5700    -8.8080 hn         1 97X       0.400500
     49 H18        -32.9090   -41.1810    -8.4110 hn         1 97X       0.400500
@<TRIPOS>BOND
     1     1    17 3   
     2     2     3 ar  
     3     2    21 ar  
     4     2    25 ar  
     5     3     4 ar  
     6     3    22 ar  
     7     4    26 ar  
     8     4    32 1   
     9     5    13 1   
    10     5    21 ar  
    11     5    26 ar  
    12     6     7 1   
    13     6    13 1   
    14     6    27 1   
    15     7    33 1   
    16     7    34 1   
    17     7    35 1   
    18     8    14 1   
    19     8    27 2   
    20     8    36 1   
    21     9    12 ar  
    22     9    14 1   
    23     9    15 ar  
    24    10    11 ar  
    25    10    16 ar  
    26    10    19 1   
    27    11    12 ar  
    28    11    18 1   
    29    12    37 1   
    30    13    14 2   
    31    15    16 ar  
    32    15    38 1   
    33    16    39 1   
    34    17    21 1   
    35    18    20 1   
    36    18    28 2   
    37    19    29 1   
    38    19    31 2   
    39    20    30 1   
    40    20    40 1   
    41    20    41 1   
    42    22    23 ar  
    43    22    42 1   
    44    23    24 ar  
    45    23    43 1   
    46    24    25 ar  
    47    24    44 1   
    48    25    45 1   
    49    26    46 1   
    50    28    29 1   
    51    29    47 1   
    52    30    48 1   
    53    30    49 1   
@<TRIPOS>SUBSTRUCTURE
     1 97X         1 TEMP              0 ****  ****    0 ROOT
