@<TRIPOS>MOLECULE
97X
   49    53     1     0     0
SMALL
No Charge or Current Charge


@<TRIPOS>ATOM
      1 N1         -30.9630   -52.2680   -12.0150 n1         1 97X      -0.440000
      2 C4         -28.6090   -51.4110    -9.5040 ca         1 97X      -0.012000
      3 C7         -27.9810   -50.6480    -8.4900 ca         1 97X      -0.038000
      4 C8         -28.5980   -49.4900    -7.9950 ca         1 97X      -0.073000
      5 C10        -30.5010   -49.8310    -9.4910 ca         1 97X       0.017000
      6 N12        -33.0350   -50.1050    -9.8080 na         1 97X       0.153800
      7 C13        -33.1780   -51.5080    -9.3820 c3         1 97X       0.064900
      8 C15        -33.6790   -48.1300   -10.1490 cc         1 97X       0.254900
      9 C17        -31.4120   -46.8950   -10.2700 ca         1 97X       0.041000
     10 C20        -29.8130   -44.5670   -10.4950 ca         1 97X      -0.152600
     11 C21        -31.1610   -44.4470   -10.0840 ca         1 97X      -0.112900
     12 C22        -31.9440   -45.6210    -9.9790 ca         1 97X      -0.106000
     13 C11        -31.8350   -49.3690    -9.9480 cd         1 97X      -0.094000
     14 C16        -32.2770   -48.0830   -10.1630 cc         1 97X      -0.152000
     15 C18        -30.0760   -46.9800   -10.7140 ca         1 97X      -0.110000
     16 C19        -29.2810   -45.8300   -10.8170 ca         1 97X      -0.048000
     17 C2         -30.4820   -51.6970   -11.1170 cg         1 97X       0.316000
     18 C23        -31.7150   -43.1060    -9.7600 cc         1 97X       0.363900
     19 C27        -28.9670   -43.3300   -10.5850 c          1 97X       0.554600
     20 C29        -33.1760   -42.9310    -9.3180 c3         1 97X       0.132500
     21 C3         -29.8740   -50.9970   -10.0110 ca         1 97X       0.006000
     22 C31        -26.7290   -51.0340    -7.9740 ca         1 97X      -0.095000
     23 C32        -26.0860   -52.1820    -8.4600 ca         1 97X      -0.098000
     24 C33        -26.6930   -52.9460    -9.4660 ca         1 97X      -0.094000
     25 C34        -27.9420   -52.5680    -9.9870 ca         1 97X      -0.099000
     26 C9         -29.8430   -49.0870    -8.4920 ca         1 97X      -0.098000
     27 N14        -34.1760   -49.3300    -9.9580 nd         1 97X      -0.508800
     28 N24        -30.9370   -42.0150    -9.8250 nd         1 97X      -0.403300
     29 N25        -29.6250   -42.1720   -10.2290 ns         1 97X      -0.241900
     30 N30        -33.7160   -41.5320    -9.2900 n8         1 97X      -0.981200
     31 O28        -27.7940   -43.3310   -10.9360 o          1 97X      -0.546000
     32 H1         -28.1170   -48.9000    -7.2170 ha         1 97X       0.124000
     33 H2         -34.0890   -51.6200    -8.7810 h1         1 97X       0.064367
     34 H3         -33.2510   -52.1540   -10.2640 h1         1 97X       0.064367
     35 H4         -32.3170   -51.8070    -8.7740 h1         1 97X       0.064367
     36 H5         -34.3650   -47.3040   -10.2740 h4         1 97X       0.043100
     37 H6         -32.9750   -45.5560    -9.6450 ha         1 97X       0.120000
     38 H7         -29.6490   -47.9330   -11.0100 ha         1 97X       0.126000
     39 H8         -28.2500   -45.9230   -11.1530 ha         1 97X       0.141000
     40 H9         -33.8190   -43.5150    -9.9900 h1         1 97X       0.040200
     41 H10        -33.2770   -43.3550    -8.3090 h1         1 97X       0.040200
     42 H11        -26.2510   -50.4430    -7.1950 ha         1 97X       0.120000
     43 H12        -25.1190   -52.4770    -8.0590 ha         1 97X       0.120000
     44 H13        -26.1950   -53.8370    -9.8450 ha         1 97X       0.120000
     45 H14        -28.3760   -53.1920   -10.7640 ha         1 97X       0.127000
     46 H15        -30.3150   -48.1990    -8.0770 ha         1 97X       0.133000
     47 H16        -29.0480   -41.3370   -10.2820 hn         1 97X       0.353500
     48 H17        -34.6420   -41.5320    -8.8440 hn         1 97X       0.400500
     49 H18        -33.1360   -40.9650    -8.6590 hn         1 97X       0.400500
@<TRIPOS>BOND
     1     1    17 3   
     2     2     3 ar  
     3     2    21 ar  
     4     2    25 ar  
     5     3     4 ar  
     6     3    22 ar  
     7     4    26 ar  
     8     4    32 1   
     9     5    13 1   
    10     5    21 ar  
    11     5    26 ar  
    12     6     7 1   
    13     6    13 1   
    14     6    27 1   
    15     7    33 1   
    16     7    34 1   
    17     7    35 1   
    18     8    14 1   
    19     8    27 2   
    20     8    36 1   
    21     9    12 ar  
    22     9    14 1   
    23     9    15 ar  
    24    10    11 ar  
    25    10    16 ar  
    26    10    19 1   
    27    11    12 ar  
    28    11    18 1   
    29    12    37 1   
    30    13    14 2   
    31    15    16 ar  
    32    15    38 1   
    33    16    39 1   
    34    17    21 1   
    35    18    20 1   
    36    18    28 2   
    37    19    29 1   
    38    19    31 2   
    39    20    30 1   
    40    20    40 1   
    41    20    41 1   
    42    22    23 ar  
    43    22    42 1   
    44    23    24 ar  
    45    23    43 1   
    46    24    25 ar  
    47    24    44 1   
    48    25    45 1   
    49    26    46 1   
    50    28    29 1   
    51    29    47 1   
    52    30    48 1   
    53    30    49 1   
@<TRIPOS>SUBSTRUCTURE
     1 97X         1 TEMP              0 ****  ****    0 ROOT
