@<TRIPOS>MOLECULE
97Y
   64    67     1     0     0
SMALL
abcg2


@<TRIPOS>ATOM
      1 C13         21.8980    32.3600    30.3690 c3         1 97Y       0.286800
      2 C15         22.7470    32.6450    32.8390 cy         1 97Y      -0.073400
      3 C17         20.9690    32.9970    29.3500 ca         1 97Y      -0.124300
      4 C20         21.9240    30.0620    29.4350 ca         1 97Y       0.288000
      5 C21         21.8860    24.0710    24.7180 c3         1 97Y       0.290700
      6 C22         21.7450    26.0510    26.3330 cc         1 97Y      -0.105000
      7 C24         22.7980    29.4820    27.2650 ca         1 97Y      -0.108000
      8 C26         19.6410    32.5900    29.2370 ca         1 97Y      -0.119000
      9 C28         22.6010    30.4240    28.2600 ca         1 97Y      -0.129000
     10 F01         21.6240    24.1510    23.3910 f          1 97Y      -0.113667
     11 F02         22.8330    23.1070    24.8480 f          1 97Y      -0.113667
     12 F03         20.7690    23.6070    25.3150 f          1 97Y      -0.113667
     13 O04         18.8840    35.5410    25.5450 o          1 97Y      -0.660100
     14 O05         14.7150    33.5410    27.5140 o          1 97Y      -0.742500
     15 O06         13.5630    32.5090    25.8910 o          1 97Y      -0.742500
     16 N07         22.5170    27.1770    26.4860 na         1 97Y      -0.165000
     17 N08         21.7280    30.9190    30.4850 nu         1 97Y      -0.947200
     18 N09         23.4130    26.0340    24.8080 nd         1 97Y      -0.630000
     19 N10         21.6620    27.8310    28.5580 nb         1 97Y      -0.647000
     20 N11         17.0520    34.7850    26.6520 ns         1 97Y      -0.470900
     21 C12         21.7060    32.9850    31.7450 cy         1 97Y      -0.089700
     22 C14         22.7660    34.1450    33.2580 cy         1 97Y      -0.075000
     23 C16         22.0630    34.4790    31.9090 cy         1 97Y      -0.073400
     24 C18         22.3130    25.3670    25.2950 cd         1 97Y       0.098300
     25 C19         22.3220    28.1930    27.4660 ca         1 97Y       0.367500
     26 C23         23.5100    27.1160    25.5440 cc         1 97Y       0.402400
     27 C25         21.4250    34.0210    28.5210 ca         1 97Y      -0.119000
     28 C27         21.4590    28.7350    29.5070 ca         1 97Y       0.282900
     29 C29         21.8610    34.4160    34.4560 c3         1 97Y      -0.074600
     30 C30         24.1400    34.7630    33.4610 c3         1 97Y      -0.074600
     31 C31         19.2430    34.2250    27.5000 ca         1 97Y      -0.118600
     32 C32         20.5750    34.6260    27.6060 ca         1 97Y      -0.069500
     33 C33         18.7870    33.1950    28.3270 ca         1 97Y      -0.069500
     34 C34         18.3770    34.9040    26.4780 c          1 97Y       0.595700
     35 C35         16.0420    35.2760    25.7320 c3         1 97Y       0.120000
     36 C36         15.1580    34.1430    25.2220 c3         1 97Y      -0.233400
     37 C37         14.4120    33.3350    26.3060 c          1 97Y       0.711000
     38 H1          22.9280    32.5580    30.0580 h1         1 97Y       0.059700
     39 H2          22.4550    31.9230    33.6020 hc         1 97Y       0.054200
     40 H3          23.6960    32.3340    32.3990 hc         1 97Y       0.054200
     41 H4          20.8910    25.8550    26.9540 h4         1 97Y       0.188000
     42 H5          23.2960    29.7600    26.3470 ha         1 97Y       0.131000
     43 H6          19.2730    31.7800    29.8550 ha         1 97Y       0.104000
     44 H7          22.9600    31.4320    28.1150 ha         1 97Y       0.135000
     45 H9          21.0730    30.6120    31.1880 hn         1 97Y       0.479000
     46 H10         16.6650    34.2530    27.4200 hn         1 97Y       0.360500
     47 H11         20.6870    32.7820    32.0830 hc         1 97Y       0.062700
     48 H12         22.7800    34.8050    31.1530 hc         1 97Y       0.054200
     49 H13         21.2370    35.1900    31.9420 hc         1 97Y       0.054200
     50 H14         24.2720    27.8720    25.4560 h5         1 97Y       0.061100
     51 H15         22.4590    34.3390    28.5850 ha         1 97Y       0.104000
     52 H16         20.9080    28.4100    30.3840 h4         1 97Y       0.024100
     53 H17         22.2930    33.9930    35.3680 hc         1 97Y       0.033700
     54 H18         21.7330    35.4910    34.6070 hc         1 97Y       0.033700
     55 H19         20.8710    33.9750    34.3170 hc         1 97Y       0.033700
     56 H20         24.6230    34.3530    34.3520 hc         1 97Y       0.033700
     57 H21         24.7860    34.5650    32.6030 hc         1 97Y       0.033700
     58 H22         24.0650    35.8470    33.5870 hc         1 97Y       0.033700
     59 H23         20.9370    35.4120    26.9590 ha         1 97Y       0.143000
     60 H24         17.7680    32.8350    28.2550 ha         1 97Y       0.143000
     61 H25         16.5500    35.7690    24.9050 h1         1 97Y       0.036200
     62 H26         15.4300    36.0240    26.2440 h1         1 97Y       0.036200
     63 H27         15.7630    33.4360    24.6470 hc         1 97Y       0.036700
     64 H28         14.4140    34.5470    24.5310 hc         1 97Y       0.036700
@<TRIPOS>BOND
     1     1     3 1   
     2     1    17 1   
     3     1    21 1   
     4     1    38 1   
     5     2    21 1   
     6     2    22 1   
     7     2    39 1   
     8     2    40 1   
     9     3     8 ar  
    10     3    27 ar  
    11     4     9 ar  
    12     4    17 1   
    13     4    28 ar  
    14     5    10 1   
    15     5    11 1   
    16     5    12 1   
    17     5    24 1   
    18     6    16 1   
    19     6    24 2   
    20     6    41 1   
    21     7     9 ar  
    22     7    25 ar  
    23     7    42 1   
    24     8    33 ar  
    25     8    43 1   
    26     9    44 1   
    27    13    34 2   
    28    14    37 1   
    29    15    37 1   
    30    16    25 1   
    31    16    26 1   
    32    17    45 1   
    33    18    24 1   
    34    18    26 2   
    35    19    25 ar  
    36    19    28 ar  
    37    20    34 1   
    38    20    35 1   
    39    20    46 1   
    40    21    23 1   
    41    21    47 1   
    42    22    23 1   
    43    22    29 1   
    44    22    30 1   
    45    23    48 1   
    46    23    49 1   
    47    26    50 1   
    48    27    32 ar  
    49    27    51 1   
    50    28    52 1   
    51    29    53 1   
    52    29    54 1   
    53    29    55 1   
    54    30    56 1   
    55    30    57 1   
    56    30    58 1   
    57    31    32 ar  
    58    31    33 ar  
    59    31    34 1   
    60    32    59 1   
    61    33    60 1   
    62    35    36 1   
    63    35    61 1   
    64    35    62 1   
    65    36    37 1   
    66    36    63 1   
    67    36    64 1   
@<TRIPOS>SUBSTRUCTURE
     1 97Y         1 TEMP              0 ****  ****    0 ROOT
