@<TRIPOS>MOLECULE
97Y
   64    67     1     0     0
SMALL
No Charge or Current Charge


@<TRIPOS>ATOM
      1 C13         22.1230    32.3950    30.4240 c3         1 97Y       0.286800
      2 C15         22.9830    32.9380    32.8930 cy         1 97Y      -0.073400
      3 C17         21.1700    32.9220    29.3480 ca         1 97Y      -0.124300
      4 C20         22.1450    30.0010    29.4860 ca         1 97Y       0.288000
      5 C21         21.5080    24.4590    24.1540 c3         1 97Y       0.290700
      6 C22         21.5120    26.3190    25.9620 cc         1 97Y      -0.105000
      7 C24         23.0240    29.3260    27.3310 ca         1 97Y      -0.108000
      8 C26         19.7920    32.6340    29.3910 ca         1 97Y      -0.119000
      9 C28         22.9250    30.2890    28.3540 ca         1 97Y      -0.129000
     10 F01         21.6090    24.7070    22.8270 f          1 97Y      -0.113667
     11 F02         22.0990    23.2620    24.3800 f          1 97Y      -0.113667
     12 F03         20.1910    24.3010    24.4230 f          1 97Y      -0.113667
     13 O04         18.9470    35.1580    25.3300 o          1 97Y      -0.660100
     14 O05         14.7190    33.1970    27.8310 o          1 97Y      -0.742500
     15 O06         13.5430    34.8840    27.1890 o          1 97Y      -0.742500
     16 N07         22.4960    27.1750    26.3940 na         1 97Y      -0.165000
     17 N08         22.0130    30.9340    30.5360 nu         1 97Y      -0.947200
     18 N09         23.4730    25.9430    24.8600 nd         1 97Y      -0.630000
     19 N10         21.6010    27.8040    28.5340 nb         1 97Y      -0.647000
     20 N11         17.1800    34.1560    26.3290 ns         1 97Y      -0.470900
     21 C12         21.8810    33.0700    31.7850 cy         1 97Y      -0.089700
     22 C14         22.5580    34.3680    33.3890 cy         1 97Y      -0.075000
     23 C16         22.1320    34.6130    31.8960 cy         1 97Y      -0.073400
     24 C18         22.1350    25.5680    24.9890 cd         1 97Y       0.098300
     25 C19         22.3530    28.0830    27.4410 ca         1 97Y       0.367500
     26 C23         23.6730    26.9160    25.7410 cc         1 97Y       0.402400
     27 C25         21.6650    33.7150    28.2960 ca         1 97Y      -0.119000
     28 C27         21.5050    28.7350    29.5200 ca         1 97Y       0.282900
     29 C29         21.4250    34.4220    34.4440 c3         1 97Y      -0.074600
     30 C30         23.7040    35.2590    33.9080 c3         1 97Y      -0.074600
     31 C31         19.4170    33.9190    27.3370 ca         1 97Y      -0.118600
     32 C32         20.8010    34.2060    27.3030 ca         1 97Y      -0.069500
     33 C33         18.9230    33.1230    28.4000 ca         1 97Y      -0.069500
     34 C34         18.5170    34.4680    26.2460 c          1 97Y       0.595700
     35 C35         16.1580    34.5900    25.3810 c3         1 97Y       0.120000
     36 C36         14.8520    33.7910    25.5470 c3         1 97Y      -0.233400
     37 C37         14.3080    33.9590    26.9690 c          1 97Y       0.711000
     38 H1          23.1510    32.6500    30.1290 h1         1 97Y       0.059700
     39 H2          22.8430    32.1210    33.6080 hc         1 97Y       0.054200
     40 H3          24.0060    32.8770    32.5030 hc         1 97Y       0.054200
     41 H4          20.5000    26.3070    26.3500 h4         1 97Y       0.188000
     42 H5          23.6150    29.5550    26.4480 ha         1 97Y       0.131000
     43 H6          19.3890    32.0240    30.1970 ha         1 97Y       0.104000
     44 H7          23.4470    31.2360    28.2610 ha         1 97Y       0.135000
     45 H9          21.5110    30.5970    31.3580 hn         1 97Y       0.479000
     46 H10         16.8820    33.5920    27.1150 hn         1 97Y       0.360500
     47 H11         20.8830    32.7780    32.1300 hc         1 97Y       0.062700
     48 H12         22.9370    34.9830    31.2480 hc         1 97Y       0.054200
     49 H13         21.2530    35.2480    31.7430 hc         1 97Y       0.054200
     50 H14         24.6020    27.4380    25.9430 h5         1 97Y       0.061100
     51 H15         22.7250    33.9540    28.2450 ha         1 97Y       0.104000
     52 H16         20.8880    28.4570    30.3740 h4         1 97Y       0.024100
     53 H17         21.7730    34.0540    35.4170 hc         1 97Y       0.033700
     54 H18         21.0650    35.4490    34.5850 hc         1 97Y       0.033700
     55 H19         20.5600    33.8130    34.1580 hc         1 97Y       0.033700
     56 H20         24.0820    34.9000    34.8720 hc         1 97Y       0.033700
     57 H21         24.5470    35.2700    33.2070 hc         1 97Y       0.033700
     58 H22         23.3730    36.2970    34.0390 hc         1 97Y       0.033700
     59 H23         21.2130    34.8160    26.5020 ha         1 97Y       0.143000
     60 H24         17.8690    32.8710    28.4780 ha         1 97Y       0.143000
     61 H25         16.5370    34.4550    24.3590 h1         1 97Y       0.036200
     62 H26         15.9630    35.6590    25.5380 h1         1 97Y       0.036200
     63 H27         15.1170    32.7440    25.3570 hc         1 97Y       0.036700
     64 H28         14.1510    34.2080    24.8140 hc         1 97Y       0.036700
@<TRIPOS>BOND
     1     1     3 1   
     2     1    17 1   
     3     1    21 1   
     4     1    38 1   
     5     2    21 1   
     6     2    22 1   
     7     2    39 1   
     8     2    40 1   
     9     3     8 ar  
    10     3    27 ar  
    11     4     9 ar  
    12     4    17 1   
    13     4    28 ar  
    14     5    10 1   
    15     5    11 1   
    16     5    12 1   
    17     5    24 1   
    18     6    16 1   
    19     6    24 2   
    20     6    41 1   
    21     7     9 ar  
    22     7    25 ar  
    23     7    42 1   
    24     8    33 ar  
    25     8    43 1   
    26     9    44 1   
    27    13    34 2   
    28    14    37 1   
    29    15    37 1   
    30    16    25 1   
    31    16    26 1   
    32    17    45 1   
    33    18    24 1   
    34    18    26 2   
    35    19    25 ar  
    36    19    28 ar  
    37    20    34 1   
    38    20    35 1   
    39    20    46 1   
    40    21    23 1   
    41    21    47 1   
    42    22    23 1   
    43    22    29 1   
    44    22    30 1   
    45    23    48 1   
    46    23    49 1   
    47    26    50 1   
    48    27    32 ar  
    49    27    51 1   
    50    28    52 1   
    51    29    53 1   
    52    29    54 1   
    53    29    55 1   
    54    30    56 1   
    55    30    57 1   
    56    30    58 1   
    57    31    32 ar  
    58    31    33 ar  
    59    31    34 1   
    60    32    59 1   
    61    33    60 1   
    62    35    36 1   
    63    35    61 1   
    64    35    62 1   
    65    36    37 1   
    66    36    63 1   
    67    36    64 1   
@<TRIPOS>SUBSTRUCTURE
     1 97Y         1 TEMP              0 ****  ****    0 ROOT
