@<TRIPOS>MOLECULE
97Z
   40    43     1     0     0
SMALL
No Charge or Current Charge


@<TRIPOS>ATOM
      1 CAS         -4.9260     1.1670     0.1390 c6         1 97Z       0.166800
      2 CAT         -6.3780     0.8490     0.6060 c6         1 97Z       0.144100
      3 OAU         -6.9780    -0.1640    -0.2350 os         1 97Z      -0.439000
      4 CAV         -6.2380    -1.4070    -0.2180 c6         1 97Z       0.144100
      5 CAW         -4.7790    -1.1900    -0.7210 c6         1 97Z       0.166800
      6 NAR         -4.0890    -0.0720     0.0040 nh         1 97Z      -0.790400
      7 CAO         -2.6750    -0.0070     0.0270 ca         1 97Z       0.342000
      8 CAP         -1.9290    -1.1130     0.4620 ca         1 97Z      -0.189500
      9 CAQ         -0.5250    -1.0690     0.4930 ca         1 97Z      -0.029500
     10 CAN         -1.9890     1.1500    -0.3850 ca         1 97Z      -0.189500
     11 CAM         -0.5840     1.2030    -0.3570 ca         1 97Z      -0.029500
     12 CAL          0.1690     0.0990     0.1050 ca         1 97Z      -0.207900
     13 CAD          1.6410     0.1220     0.1030 cc         1 97Z       0.578500
     14 NAE          2.3280    -1.0120    -0.0460 nd         1 97Z      -0.643100
     15 CAF          3.7250    -0.8630    -0.0220 ca         1 97Z       0.197400
     16 CAK          4.5060    -2.0230    -0.1860 ca         1 97Z      -0.109000
     17 CAJ          5.9100    -1.9570    -0.1750 ca         1 97Z      -0.074000
     18 CAI          6.5500    -0.7220     0.0020 ca         1 97Z      -0.138000
     19 CAH          5.7860     0.4440     0.1690 ca         1 97Z      -0.038000
     20 CAG          4.3760     0.3720     0.1570 ca         1 97Z      -0.209600
     21 CAB          3.5460     1.5840     0.3370 c          1 97Z       0.578600
     22 OAA          3.9970     2.7050     0.5130 o          1 97Z      -0.542000
     23 NAC          2.2180     1.3490     0.2980 ns         1 97Z      -0.428400
     24 H1          -4.9740     1.6940    -0.8260 h1         1 97Z       0.051700
     25 H2          -4.4720     1.8550     0.8670 h1         1 97Z       0.051700
     26 H3          -6.3650     0.4940     1.6460 h1         1 97Z       0.055700
     27 H4          -6.9900     1.7610     0.5660 h1         1 97Z       0.055700
     28 H5          -6.2230    -1.8050     0.8070 h1         1 97Z       0.055700
     29 H6          -6.7480    -2.1390    -0.8600 h1         1 97Z       0.055700
     30 H7          -4.2310    -2.1350    -0.6000 h1         1 97Z       0.051700
     31 H8          -4.8070    -0.9720    -1.7990 h1         1 97Z       0.051700
     32 H9          -2.4380    -2.0140     0.7910 ha         1 97Z       0.117500
     33 H10          0.0200    -1.9470     0.8370 ha         1 97Z       0.123000
     34 H11         -2.5380     2.0120    -0.7490 ha         1 97Z       0.117500
     35 H12         -0.0940     2.1070    -0.7140 ha         1 97Z       0.123000
     36 H13          4.0160    -2.9830    -0.3250 ha         1 97Z       0.130000
     37 H14          6.4980    -2.8630    -0.3040 ha         1 97Z       0.115000
     38 H15          7.6360    -0.6670     0.0120 ha         1 97Z       0.118000
     39 H16          6.2890     1.4000     0.3080 ha         1 97Z       0.134000
     40 H17          1.6220     2.1480     0.4440 hn         1 97Z       0.329500
@<TRIPOS>BOND
     1     1     2 1   
     2     1     6 1   
     3     1    24 1   
     4     1    25 1   
     5     2     3 1   
     6     2    26 1   
     7     2    27 1   
     8     3     4 1   
     9     4     5 1   
    10     4    28 1   
    11     4    29 1   
    12     5     6 1   
    13     5    30 1   
    14     5    31 1   
    15     6     7 1   
    16     7     8 ar  
    17     7    10 ar  
    18     8     9 ar  
    19     8    32 1   
    20     9    12 ar  
    21     9    33 1   
    22    10    11 ar  
    23    10    34 1   
    24    11    12 ar  
    25    11    35 1   
    26    12    13 1   
    27    13    14 2   
    28    13    23 1   
    29    14    15 1   
    30    15    16 ar  
    31    15    20 ar  
    32    16    17 ar  
    33    16    36 1   
    34    17    18 ar  
    35    17    37 1   
    36    18    19 ar  
    37    18    38 1   
    38    19    20 ar  
    39    19    39 1   
    40    20    21 1   
    41    21    22 2   
    42    21    23 1   
    43    23    40 1   
@<TRIPOS>SUBSTRUCTURE
     1 97Z         1 TEMP              0 ****  ****    0 ROOT
