@<TRIPOS>MOLECULE
97Z
   40    43     1     0     0
SMALL
bcc


@<TRIPOS>ATOM
      1 CAS         -4.8450     1.0960    -0.1550 c6         1 97Z       0.166800
      2 CAT         -6.2940     0.9040     0.2500 c6         1 97Z       0.120900
      3 OAU         -6.8710    -0.2240    -0.3630 os         1 97Z      -0.392600
      4 CAV         -6.1640    -1.3790     0.0190 c6         1 97Z       0.120900
      5 CAW         -4.7100    -1.3170    -0.4050 c6         1 97Z       0.166800
      6 NAR         -4.0700    -0.1070     0.0960 nh         1 97Z      -0.652000
      7 CAO         -2.6960    -0.0240     0.0770 ca         1 97Z       0.203600
      8 CAP         -1.8880    -1.1690     0.2310 ca         1 97Z      -0.207500
      9 CAQ         -0.5150    -1.0830     0.2470 ca         1 97Z      -0.047500
     10 CAN         -2.0260     1.2040    -0.0740 ca         1 97Z      -0.207500
     11 CAM         -0.6470     1.2800    -0.0430 ca         1 97Z      -0.047500
     12 CAL          0.1430     0.1440     0.1190 ca         1 97Z      -0.207900
     13 CAD          1.6080     0.1820     0.1380 cc         1 97Z       0.578500
     14 NAE          2.2840    -0.8910    -0.1010 nd         1 97Z      -0.643100
     15 CAF          3.6510    -0.8190    -0.0740 ca         1 97Z       0.197400
     16 CAK          4.3930    -1.9830    -0.3250 ca         1 97Z      -0.128000
     17 CAJ          5.7700    -1.9450    -0.3140 ca         1 97Z      -0.092000
     18 CAI          6.4510    -0.7500    -0.0520 ca         1 97Z      -0.156000
     19 CAH          5.7390     0.4030     0.1970 ca         1 97Z      -0.056000
     20 CAG          4.3420     0.3770     0.1850 ca         1 97Z      -0.209600
     21 CAB          3.5710     1.5820     0.4550 c          1 97Z       0.721100
     22 OAA          4.0350     2.6800     0.7050 o          1 97Z      -0.617500
     23 NAC          2.2100     1.3770     0.4180 ns         1 97Z      -0.495400
     24 H1          -4.7830     1.3960    -1.2110 h1         1 97Z       0.051700
     25 H2          -4.4540     1.9200     0.4430 h1         1 97Z       0.051700
     26 H3          -6.3580     0.8180     1.3440 h1         1 97Z       0.055700
     27 H4          -6.8680     1.7800    -0.0530 h1         1 97Z       0.055700
     28 H5          -6.2210    -1.5180     1.1080 h1         1 97Z       0.055700
     29 H6          -6.6410    -2.2370    -0.4560 h1         1 97Z       0.055700
     30 H7          -4.2240    -2.2050    -0.0060 h1         1 97Z       0.051700
     31 H8          -4.6330    -1.3660    -1.5000 h1         1 97Z       0.051700
     32 H9          -2.3300    -2.1460     0.3630 ha         1 97Z       0.135500
     33 H10          0.0660    -1.9860     0.3760 ha         1 97Z       0.141000
     34 H11         -2.5740     2.1200    -0.2390 ha         1 97Z       0.135500
     35 H12         -0.2050     2.2570    -0.1940 ha         1 97Z       0.141000
     36 H13          3.8640    -2.9050    -0.5310 ha         1 97Z       0.148000
     37 H14          6.3310    -2.8490    -0.5120 ha         1 97Z       0.133000
     38 H15          7.5320    -0.7340    -0.0470 ha         1 97Z       0.136000
     39 H16          6.2550     1.3310     0.4030 ha         1 97Z       0.152000
     40 H17          1.6370     2.1770     0.6520 hn         1 97Z       0.329500
@<TRIPOS>BOND
     1     1     2 1   
     2     1     6 1   
     3     1    24 1   
     4     1    25 1   
     5     2     3 1   
     6     2    26 1   
     7     2    27 1   
     8     3     4 1   
     9     4     5 1   
    10     4    28 1   
    11     4    29 1   
    12     5     6 1   
    13     5    30 1   
    14     5    31 1   
    15     6     7 1   
    16     7     8 ar  
    17     7    10 ar  
    18     8     9 ar  
    19     8    32 1   
    20     9    12 ar  
    21     9    33 1   
    22    10    11 ar  
    23    10    34 1   
    24    11    12 ar  
    25    11    35 1   
    26    12    13 1   
    27    13    14 2   
    28    13    23 1   
    29    14    15 1   
    30    15    16 ar  
    31    15    20 ar  
    32    16    17 ar  
    33    16    36 1   
    34    17    18 ar  
    35    17    37 1   
    36    18    19 ar  
    37    18    38 1   
    38    19    20 ar  
    39    19    39 1   
    40    20    21 1   
    41    21    22 2   
    42    21    23 1   
    43    23    40 1   
@<TRIPOS>SUBSTRUCTURE
     1 97Z         1 TEMP              0 ****  ****    0 ROOT
