@<TRIPOS>MOLECULE
980
   65    69     1     0     0
SMALL
No Charge or Current Charge


@<TRIPOS>ATOM
      1 C1           0.3010     2.6850    -1.3110 c3         1 980      -0.027900
      2 C2           0.0710     1.1920    -1.3120 cc         1 980      -0.166000
      3 C3           1.0050     0.2290    -1.6830 cd         1 980      -0.054600
      4 S4           0.4130    -1.4520    -1.5530 ss         1 980       0.066400
      5 C5          -1.1400    -0.8230    -0.9720 ca         1 980      -0.337000
      6 C6          -1.1580     0.5520    -0.8870 ca         1 980       0.167800
      7 N7          -2.2230     1.2220    -0.4160 nb         1 980      -0.200000
      8 C8          -3.2840     0.4830    -0.0270 cp         1 980       0.271500
      9 N9          -3.3460    -0.8660    -0.0780 nb         1 980      -0.298000
     10 C10         -2.2790    -1.5350    -0.5560 ca         1 980       0.455900
     11 N11         -2.3940    -2.9420    -0.5900 nh         1 980      -0.782300
     12 C12         -1.8200    -3.7720    -1.6960 c6         1 980       0.185300
     13 C13         -2.7130    -5.0050    -2.0280 c6         1 980       0.138600
     14 O14         -3.0320    -5.7510    -0.8290 os         1 980      -0.441000
     15 C15         -3.7530    -4.9560     0.1430 c6         1 980       0.138600
     16 C16         -2.9130    -3.7210     0.5840 c6         1 980       0.185300
     17 C17         -4.4800     1.2100     0.5060 cp         1 980      -0.331500
     18 C18         -4.5250     2.6250     0.6080 ca         1 980       0.194900
     19 N19         -5.6000     3.2790     1.0880 nb         1 980      -0.260500
     20 C20         -6.6330     2.5180     1.4670 ca         1 980       0.394900
     21 N21         -6.7240     1.1840     1.4240 nb         1 980      -0.260500
     22 C22         -5.6480     0.5300     0.9450 ca         1 980       0.194900
     23 N23         -7.7150     3.1760     1.9470 nv         1 980      -1.068900
     24 C24          2.4200     0.4650    -2.1610 c3         1 980       0.235000
     25 N25          3.2950     1.1050    -1.1470 n3         1 980      -0.715600
     26 C26          4.6330     1.4690    -1.6960 c6         1 980       0.140800
     27 C27          5.5070     2.2030    -0.6420 c6         1 980       0.097500
     28 N28          5.6390     1.4020     0.6090 n          1 980      -0.418800
     29 C29          4.3060     1.0280     1.1650 c6         1 980       0.097500
     30 C30          3.4310     0.3020     0.1060 c6         1 980       0.140800
     31 C31          6.8560     0.7610     0.9630 c          1 980       0.609100
     32 O32          7.8270     0.8440     0.2140 o          1 980      -0.569100
     33 C33          6.9570     0.0120     2.3480 c3         1 980       0.097300
     34 C35          6.8050     0.9790     3.5460 c3         1 980      -0.130100
     35 O36          8.1970    -0.7180     2.5180 oh         1 980      -0.625000
     36 H1          -0.6300     3.2340    -1.4980 hc         1 980       0.053033
     37 H1A          0.7000     3.0130    -0.3450 hc         1 980       0.053033
     38 H1B          1.0170     2.9790    -2.0870 hc         1 980       0.053033
     39 H12         -1.7130    -3.1720    -2.6120 h1         1 980       0.064450
     40 H12A        -0.8170    -4.1280    -1.4180 h1         1 980       0.064450
     41 H13         -3.6460    -4.6700    -2.5040 h1         1 980       0.057200
     42 H13A        -2.1890    -5.6640    -2.7350 h1         1 980       0.057200
     43 H15         -4.7030    -4.6200    -0.2980 h1         1 980       0.057200
     44 H15A        -3.9860    -5.5790     1.0170 h1         1 980       0.057200
     45 H16         -2.0700    -4.0690     1.1990 h1         1 980       0.064450
     46 H16A        -3.5400    -3.0940     1.2340 h1         1 980       0.064450
     47 H18         -3.6870     3.2500     0.3010 h4         1 980       0.039100
     48 H22         -5.7270    -0.5550     0.9130 h4         1 980       0.039100
     49 HN23        -7.7810     4.1780     1.7840 hn         1 980       0.505500
     50 HN2A        -8.5950     2.6700     2.0290 hn         1 980       0.505500
     51 H24          2.8520    -0.4950    -2.4750 h1         1 980       0.046200
     52 H24A         2.3680     1.0980    -3.0580 h1         1 980       0.046200
     53 H26          5.1670     0.5660    -2.0280 h1         1 980       0.043950
     54 H26A         4.5220     2.1210    -2.5740 h1         1 980       0.043950
     55 H27          6.4890     2.4310    -1.0760 h1         1 980       0.062700
     56 H27A         5.0350     3.1650    -0.3970 h1         1 980       0.062700
     57 H29          4.3890     0.3910     2.0530 h1         1 980       0.062700
     58 H29A         3.7880     1.9450     1.4820 h1         1 980       0.062700
     59 H30          2.4450     0.1060     0.5500 h1         1 980       0.043950
     60 H30A         3.8850    -0.6750    -0.1170 h1         1 980       0.043950
     61 H33          6.1280    -0.7060     2.3810 h1         1 980       0.034700
     62 H35          7.6210     1.7120     3.5560 hc         1 980       0.048367
     63 H35A         5.8590     1.5300     3.4960 hc         1 980       0.048367
     64 H35B         6.8220     0.4300     4.4950 hc         1 980       0.048367
     65 HO36         8.1460    -1.1870     3.3800 ho         1 980       0.442000
@<TRIPOS>BOND
     1     1     2 1   
     2     1    36 1   
     3     1    37 1   
     4     1    38 1   
     5     2     3 2   
     6     2     6 1   
     7     3     4 1   
     8     3    24 1   
     9     4     5 1   
    10     5     6 ar  
    11     5    10 ar  
    12     6     7 ar  
    13     7     8 ar  
    14     8     9 ar  
    15     8    17 1   
    16     9    10 ar  
    17    10    11 1   
    18    11    12 1   
    19    11    16 1   
    20    12    13 1   
    21    12    39 1   
    22    12    40 1   
    23    13    14 1   
    24    13    41 1   
    25    13    42 1   
    26    14    15 1   
    27    15    16 1   
    28    15    43 1   
    29    15    44 1   
    30    16    45 1   
    31    16    46 1   
    32    17    18 ar  
    33    17    22 ar  
    34    18    19 ar  
    35    18    47 1   
    36    19    20 ar  
    37    20    21 ar  
    38    20    23 1   
    39    21    22 ar  
    40    22    48 1   
    41    23    49 1   
    42    23    50 1   
    43    24    25 1   
    44    24    51 1   
    45    24    52 1   
    46    25    26 1   
    47    25    30 1   
    48    26    27 1   
    49    26    53 1   
    50    26    54 1   
    51    27    28 1   
    52    27    55 1   
    53    27    56 1   
    54    28    29 1   
    55    28    31 1   
    56    29    30 1   
    57    29    57 1   
    58    29    58 1   
    59    30    59 1   
    60    30    60 1   
    61    31    32 2   
    62    31    33 1   
    63    33    34 1   
    64    33    35 1   
    65    33    61 1   
    66    34    62 1   
    67    34    63 1   
    68    34    64 1   
    69    35    65 1   
@<TRIPOS>SUBSTRUCTURE
     1 980         1 TEMP              0 ****  ****    0 ROOT
