@<TRIPOS>MOLECULE
980
   65    69     1     0     0
SMALL
abcg2


@<TRIPOS>ATOM
      1 C1           0.3310     2.5360    -1.1870 c3         1 980      -0.027900
      2 C2           0.1270     1.0580    -1.1970 cc         1 980      -0.166000
      3 C3           1.0290     0.1240    -1.5910 cd         1 980      -0.054600
      4 S4           0.4300    -1.4930    -1.4670 ss         1 980       0.066400
      5 C5          -1.1050    -0.9450    -0.8810 ca         1 980      -0.337000
      6 C6          -1.1040     0.4520    -0.7770 ca         1 980       0.167800
      7 N7          -2.1430     1.1570    -0.3130 nb         1 980      -0.200000
      8 C8          -3.1790     0.4370     0.0670 cp         1 980       0.271500
      9 N9          -3.2790    -0.8880     0.0070 nb         1 980      -0.298000
     10 C10         -2.2820    -1.6260    -0.4750 ca         1 980       0.455900
     11 N11         -2.4860    -2.9620    -0.5330 nh         1 980      -0.782300
     12 C12         -1.5230    -3.9320    -1.0180 c6         1 980       0.185300
     13 C13         -2.2310    -5.0370    -1.7860 c6         1 980       0.138600
     14 O14         -3.2510    -5.6430    -1.0310 os         1 980      -0.441000
     15 C15         -4.2130    -4.6850    -0.6490 c6         1 980       0.138600
     16 C16         -3.5990    -3.5760     0.1800 c6         1 980       0.185300
     17 C17         -4.3380     1.1560     0.6130 cp         1 980      -0.331500
     18 C18         -4.3610     2.5440     0.7390 ca         1 980       0.194900
     19 N19         -5.3870     3.2110     1.2280 nb         1 980      -0.260500
     20 C20         -6.4460     2.4840     1.6150 ca         1 980       0.394900
     21 N21         -6.5370     1.1490     1.5390 nb         1 980      -0.260500
     22 C22         -5.4950     0.5120     1.0450 ca         1 980       0.194900
     23 N23         -7.4920     3.1450     2.1240 nv         1 980      -1.068900
     24 C24          2.4260     0.3280    -2.0950 c3         1 980       0.235000
     25 N25          3.2660     1.0150    -1.1360 n3         1 980      -0.715600
     26 C26          4.5500     1.3520    -1.7220 c6         1 980       0.140800
     27 C27          5.3960     2.1430    -0.7420 c6         1 980       0.097500
     28 N28          5.5540     1.4000     0.4960 n          1 980      -0.418800
     29 C29          4.2710     1.0620     1.0850 c6         1 980       0.097500
     30 C30          3.4320     0.2700     0.0970 c6         1 980       0.140800
     31 C31          6.7670     0.9540     0.8880 c          1 980       0.609100
     32 O32          7.7870     1.1850     0.2580 o          1 980      -0.569100
     33 C33          6.8450     0.1920     2.2110 c3         1 980       0.097300
     34 C35          6.7450     1.1750     3.3760 c3         1 980      -0.130100
     35 O36          8.0750    -0.4850     2.2060 oh         1 980      -0.625000
     36 H1          -0.3430     3.0260    -1.8910 hc         1 980       0.053033
     37 H1A          0.1140     2.9480    -0.2000 hc         1 980       0.053033
     38 H1B          1.3550     2.7960    -1.4420 hc         1 980       0.053033
     39 H12         -0.8230    -3.4800    -1.7140 h1         1 980       0.064450
     40 H12A        -0.9510    -4.3530    -0.1830 h1         1 980       0.064450
     41 H13         -2.6360    -4.6190    -2.7180 h1         1 980       0.057200
     42 H13A        -1.5060    -5.8090    -2.0470 h1         1 980       0.057200
     43 H15         -4.7000    -4.2550    -1.5360 h1         1 980       0.057200
     44 H15A        -4.9750    -5.1980    -0.0610 h1         1 980       0.057200
     45 H16         -3.2360    -3.9790     1.1330 h1         1 980       0.064450
     46 H16A        -4.3520    -2.8260     0.3990 h1         1 980       0.064450
     47 H18         -3.5040     3.1310     0.4270 h4         1 980       0.039100
     48 H22         -5.5720    -0.5680     0.9830 h4         1 980       0.039100
     49 HN23        -7.5000     4.1490     2.1420 hn         1 980       0.505500
     50 HN2A        -8.3290     2.6510     2.3770 hn         1 980       0.505500
     51 H24          2.8550    -0.6430    -2.3950 h1         1 980       0.046200
     52 H24A         2.3840     0.9340    -3.0050 h1         1 980       0.046200
     53 H26          5.1070     0.4520    -2.0350 h1         1 980       0.043950
     54 H26A         4.3830     1.9570    -2.6170 h1         1 980       0.043950
     55 H27          6.3700     2.3570    -1.1740 h1         1 980       0.062700
     56 H27A         4.9080     3.0970    -0.5190 h1         1 980       0.062700
     57 H29          4.3830     0.4930     2.0020 h1         1 980       0.062700
     58 H29A         3.7500     1.9880     1.3460 h1         1 980       0.062700
     59 H30          2.4550     0.0840     0.5460 h1         1 980       0.043950
     60 H30A         3.9060    -0.7120    -0.0770 h1         1 980       0.043950
     61 H33          6.0240    -0.5310     2.2800 h1         1 980       0.034700
     62 H35          7.5440     1.9160     3.3210 hc         1 980       0.048367
     63 H35A         5.7930     1.7060     3.3860 hc         1 980       0.048367
     64 H35B         6.8310     0.6460     4.3270 hc         1 980       0.048367
     65 HO36         8.1180    -1.0080     3.0130 ho         1 980       0.442000
@<TRIPOS>BOND
     1     1     2 1   
     2     1    36 1   
     3     1    37 1   
     4     1    38 1   
     5     2     3 2   
     6     2     6 1   
     7     3     4 1   
     8     3    24 1   
     9     4     5 1   
    10     5     6 ar  
    11     5    10 ar  
    12     6     7 ar  
    13     7     8 ar  
    14     8     9 ar  
    15     8    17 1   
    16     9    10 ar  
    17    10    11 1   
    18    11    12 1   
    19    11    16 1   
    20    12    13 1   
    21    12    39 1   
    22    12    40 1   
    23    13    14 1   
    24    13    41 1   
    25    13    42 1   
    26    14    15 1   
    27    15    16 1   
    28    15    43 1   
    29    15    44 1   
    30    16    45 1   
    31    16    46 1   
    32    17    18 ar  
    33    17    22 ar  
    34    18    19 ar  
    35    18    47 1   
    36    19    20 ar  
    37    20    21 ar  
    38    20    23 1   
    39    21    22 ar  
    40    22    48 1   
    41    23    49 1   
    42    23    50 1   
    43    24    25 1   
    44    24    51 1   
    45    24    52 1   
    46    25    26 1   
    47    25    30 1   
    48    26    27 1   
    49    26    53 1   
    50    26    54 1   
    51    27    28 1   
    52    27    55 1   
    53    27    56 1   
    54    28    29 1   
    55    28    31 1   
    56    29    30 1   
    57    29    57 1   
    58    29    58 1   
    59    30    59 1   
    60    30    60 1   
    61    31    32 2   
    62    31    33 1   
    63    33    34 1   
    64    33    35 1   
    65    33    61 1   
    66    34    62 1   
    67    34    63 1   
    68    34    64 1   
    69    35    65 1   
@<TRIPOS>SUBSTRUCTURE
     1 980         1 TEMP              0 ****  ****    0 ROOT
