@<TRIPOS>MOLECULE
981
   58    62     1     0     0
SMALL
No Charge or Current Charge


@<TRIPOS>ATOM
      1 CAB         -7.8640    -1.2460     0.7750 ca         1 981       0.130000
      2 CAC         -7.3670    -1.1000    -0.5290 ca         1 981      -0.102000
      3 CAD         -6.0820    -0.5730    -0.7360 ca         1 981       0.138000
      4 CAG          7.9250    -1.5590     1.3480 c6         1 981       0.189300
      5 CAH          9.2200    -2.3630     0.9890 c6         1 981       0.154300
      6 CAJ         -7.0770    -0.8680     1.8750 ca         1 981      -0.104000
      7 CAK         -5.7900    -0.3420     1.6710 ca         1 981      -0.065000
      8 CAL         -5.2840    -0.1890     0.3650 ca         1 981      -0.023800
      9 CAM         -3.9460     0.3660     0.1700 cc         1 981      -0.164400
     10 CAN         -2.9060    -0.4730     0.5010 cd         1 981      -0.025200
     11 CAO         -1.5320    -0.0190     0.3370 ca         1 981      -0.293800
     12 CAP         -0.4320    -0.8290     0.6610 ca         1 981       0.206900
     13 CAR          3.8290    -0.5080    -0.2440 ca         1 981      -0.161000
     14 CAS          5.1470    -0.9800    -0.1350 ca         1 981       0.182000
     15 CAT          6.2180    -0.0990     0.1750 ca         1 981       0.209000
     16 CAV          8.7160     0.3070    -0.1140 c6         1 981       0.189300
     17 CAW          9.9990    -0.5270    -0.4490 c6         1 981       0.154300
     18 CAX         -3.7200     1.7410    -0.3500 c          1 981       0.577200
     19 CAZ         -1.2750     1.2650    -0.1600 ca         1 981       0.313900
     20 CBB          0.9720     0.8500     0.0080 ca         1 981       0.431900
     21 CBD          3.5410     0.8500    -0.0380 ca         1 981       0.317000
     22 CBE          4.5930     1.7330     0.2500 ca         1 981      -0.164000
     23 CBF          5.9160     1.2670     0.3610 ca         1 981      -0.106000
     24 CBI         -1.8150     4.5340     0.0800 c3         1 981      -0.107100
     25 NAI         10.3720    -1.4840     0.6340 n7         1 981      -0.864400
     26 NAQ          0.8300    -0.3920     0.5010 nb         1 981      -0.248000
     27 NAU          7.5610    -0.5580     0.2920 nh         1 981      -0.770400
     28 NAY         -2.3670     2.1380    -0.4990 n          1 981      -0.363300
     29 NBA         -0.0090     1.7020    -0.3190 nb         1 981      -0.310000
     30 NBC          2.2490     1.3680    -0.1480 nu         1 981      -0.913900
     31 OBG         -4.6500     2.4900    -0.6220 o          1 981      -0.524000
     32 ClAA        -9.4730    -1.9050     1.0330 cl         1 981      -0.192000
     33 ClAE        -5.4780    -0.4250    -2.3870 cl         1 981      -0.193000
     34 H1          -7.9760    -1.3970    -1.3780 ha         1 981       0.144000
     35 H2           7.1050    -2.2730     1.5090 h1         1 981       0.043950
     36 H3           9.4950    -3.0080     1.8360 h1         1 981       0.039700
     37 H4          -7.4650    -0.9830     2.8840 ha         1 981       0.135000
     38 H5          -5.1850    -0.0470     2.5260 ha         1 981       0.128000
     39 H6          -3.1130    -1.4730     0.8770 ha         1 981       0.197000
     40 H7          -0.5580    -1.8370     1.0550 h4         1 981       0.030100
     41 H8           3.0460    -1.2070    -0.5110 ha         1 981       0.167000
     42 H9           8.9560     1.0110     0.6970 h1         1 981       0.043950
     43 H10          8.4510     0.9050    -0.9980 h1         1 981       0.043950
     44 H11          9.8170    -1.0900    -1.3760 h1         1 981       0.039700
     45 H12         10.8380     0.1570    -0.6420 h1         1 981       0.039700
     46 H13          4.3870     2.7890     0.4030 ha         1 981       0.116000
     47 H14          6.7050     1.9740     0.6030 ha         1 981       0.120000
     48 H15         -2.9240     3.8510    -1.6460 h1         1 981       0.072200
     49 H16         -1.2170     3.4620    -1.7050 h1         1 981       0.072200
     50 H17         -1.6140     5.5200    -0.3570 hc         1 981       0.045033
     51 H18         -2.6850     4.6220     0.7410 hc         1 981       0.045033
     52 H19         -0.9480     4.2430     0.6840 hc         1 981       0.045033
     53 H20         11.1550    -2.0680     0.3120 hn         1 981       0.414000
     54 H21          2.2260     2.3740    -0.3060 hn         1 981       0.513000
     55 H22          8.0880    -1.0390     2.3040 h1         1 981       0.043950
     56 H23          8.9960    -3.0220     0.1360 h1         1 981       0.039700
     57 CBH         -2.0840     3.5020    -1.0310 c3         1 981       0.096000
     58 FAF          5.3770    -2.2970    -0.3620 f          1 981      -0.172000
@<TRIPOS>BOND
     1     1     2 ar  
     2     1     6 ar  
     3     1    32 1   
     4     2     3 ar  
     5     2    34 1   
     6     3     8 ar  
     7     3    33 1   
     8     4     5 1   
     9     4    27 1   
    10     4    35 1   
    11     4    55 1   
    12     5    25 1   
    13     5    36 1   
    14     5    56 1   
    15     6     7 ar  
    16     6    37 1   
    17     7     8 ar  
    18     7    38 1   
    19     8     9 1   
    20     9    10 2   
    21     9    18 1   
    22    10    11 1   
    23    10    39 1   
    24    11    12 ar  
    25    11    19 ar  
    26    12    26 ar  
    27    12    40 1   
    28    13    14 ar  
    29    13    21 ar  
    30    13    41 1   
    31    14    15 ar  
    32    14    58 1   
    33    15    23 ar  
    34    15    27 1   
    35    16    17 1   
    36    16    27 1   
    37    16    42 1   
    38    16    43 1   
    39    17    25 1   
    40    17    44 1   
    41    17    45 1   
    42    18    28 1   
    43    18    31 2   
    44    19    28 1   
    45    19    29 ar  
    46    20    26 ar  
    47    20    29 ar  
    48    20    30 1   
    49    21    22 ar  
    50    21    30 1   
    51    22    23 ar  
    52    22    46 1   
    53    23    47 1   
    54    24    50 1   
    55    24    51 1   
    56    24    52 1   
    57    24    57 1   
    58    25    53 1   
    59    28    57 1   
    60    30    54 1   
    61    48    57 1   
    62    49    57 1   
@<TRIPOS>SUBSTRUCTURE
     1 981         1 TEMP              0 ****  ****    0 ROOT
