@<TRIPOS>MOLECULE
981
   58    62     1     0     0
SMALL
abcg2


@<TRIPOS>ATOM
      1 CAB         -7.9060    -0.9770     0.4650 ca         1 981       0.130000
      2 CAC         -7.1730    -1.3970    -0.6310 ca         1 981      -0.102000
      3 CAD         -5.8510    -0.9870    -0.7430 ca         1 981       0.138000
      4 CAG          7.9630    -1.1850     1.4020 c6         1 981       0.189300
      5 CAH          9.2220    -2.0090     1.2100 c6         1 981       0.154300
      6 CAJ         -7.3450    -0.1610     1.4350 ca         1 981      -0.104000
      7 CAK         -6.0260     0.2310     1.2950 ca         1 981      -0.065000
      8 CAL         -5.2470    -0.1740     0.2130 ca         1 981      -0.023800
      9 CAM         -3.8370     0.2480     0.1150 cc         1 981      -0.164400
     10 CAN         -2.8140    -0.6250     0.2260 cd         1 981      -0.025200
     11 CAO         -1.4730    -0.1720     0.1410 ca         1 981      -0.293800
     12 CAP         -0.3490    -0.9820     0.2620 ca         1 981       0.206900
     13 CAR          3.7950    -0.5770     0.1610 ca         1 981      -0.161000
     14 CAS          5.1070    -0.9970     0.1950 ca         1 981       0.182000
     15 CAT          6.2080    -0.1480     0.0930 ca         1 981       0.209000
     16 CAV          8.5350     0.1250    -0.5330 c6         1 981       0.189300
     17 CAW          9.7850    -0.7170    -0.7170 c6         1 981       0.154300
     18 CAX         -3.5830     1.6710    -0.0990 c          1 981       0.577200
     19 CAZ         -1.2120     1.1940    -0.0750 ca         1 981       0.313900
     20 CBB          1.0150     0.7890    -0.0110 ca         1 981       0.431900
     21 CBD          3.5240     0.7810    -0.0140 ca         1 981       0.317000
     22 CBE          4.6000     1.6610    -0.1360 ca         1 981      -0.164000
     23 CBF          5.9050     1.2040    -0.0730 ca         1 981      -0.106000
     24 CBI         -1.7660     4.2520     0.8410 c3         1 981      -0.107100
     25 NAI         10.2420    -1.1980     0.5730 n7         1 981      -0.864400
     26 NAQ          0.8830    -0.5270     0.1880 nb         1 981      -0.248000
     27 NAU          7.5070    -0.6700     0.1140 nh         1 981      -0.770400
     28 NAY         -2.2540     2.0650    -0.2190 n          1 981      -0.363300
     29 NBA          0.0180     1.6630    -0.1460 nb         1 981      -0.310000
     30 NBC          2.2500     1.3370    -0.0870 nu         1 981      -0.913900
     31 OBG         -4.4810     2.4920    -0.1790 o          1 981      -0.524000
     32 CLAA        -9.5520    -1.4820     0.6180 cl         1 981      -0.192000
     33 CLAE        -4.9650    -1.5040    -2.1360 cl         1 981      -0.193000
     34 H1          -7.6180    -2.0270    -1.3870 ha         1 981       0.144000
     35 H2           7.1930    -1.8080     1.8540 h1         1 981       0.043950
     36 H3           9.5820    -2.3430     2.1850 h1         1 981       0.039700
     37 H4          -7.9250     0.1640     2.2880 ha         1 981       0.135000
     38 H5          -5.5810     0.8590     2.0560 ha         1 981       0.128000
     39 H6          -3.0000    -1.6790     0.3940 ha         1 981       0.197000
     40 H7          -0.4700    -2.0480     0.4240 h4         1 981       0.030100
     41 H8           3.0040    -1.3040     0.2440 ha         1 981       0.167000
     42 H9           8.7970     1.0250     0.0450 h1         1 981       0.043950
     43 H10          8.1740     0.4530    -1.5090 h1         1 981       0.043950
     44 H11          9.5600    -1.5300    -1.4240 h1         1 981       0.039700
     45 H12         10.5640    -0.1000    -1.1700 h1         1 981       0.039700
     46 H13          4.4200     2.7200    -0.2730 ha         1 981       0.116000
     47 H14          6.7060     1.9270    -0.1580 ha         1 981       0.120000
     48 H15         -2.8080     3.8960    -1.0150 h1         1 981       0.072200
     49 H16         -1.0900     3.5480    -1.0820 h1         1 981       0.072200
     50 H17         -1.5800     5.3020     0.6160 hc         1 981       0.045033
     51 H18         -2.6460     4.1970     1.4820 hc         1 981       0.045033
     52 H19         -0.9090     3.8700     1.3940 hc         1 981       0.045033
     53 H20         11.0870    -1.7410     0.4560 hn         1 981       0.414000
     54 H21          2.2290     2.3370    -0.2240 hn         1 981       0.513000
     55 H22          8.1670    -0.3610     2.1030 h1         1 981       0.043950
     56 H23          8.9630    -2.9090     0.6300 h1         1 981       0.039700
     57 CBH         -1.9740     3.4850    -0.4530 c3         1 981       0.096000
     58 FAF          5.3270    -2.3160     0.3270 f          1 981      -0.172000
@<TRIPOS>BOND
     1     1     2 ar  
     2     1     6 ar  
     3     1    32 1   
     4     2     3 ar  
     5     2    34 1   
     6     3     8 ar  
     7     3    33 1   
     8     4     5 1   
     9     4    27 1   
    10     4    35 1   
    11     4    55 1   
    12     5    25 1   
    13     5    36 1   
    14     5    56 1   
    15     6     7 ar  
    16     6    37 1   
    17     7     8 ar  
    18     7    38 1   
    19     8     9 1   
    20     9    10 2   
    21     9    18 1   
    22    10    11 1   
    23    10    39 1   
    24    11    12 ar  
    25    11    19 ar  
    26    12    26 ar  
    27    12    40 1   
    28    13    14 ar  
    29    13    21 ar  
    30    13    41 1   
    31    14    15 ar  
    32    14    58 1   
    33    15    23 ar  
    34    15    27 1   
    35    16    17 1   
    36    16    27 1   
    37    16    42 1   
    38    16    43 1   
    39    17    25 1   
    40    17    44 1   
    41    17    45 1   
    42    18    28 1   
    43    18    31 2   
    44    19    28 1   
    45    19    29 ar  
    46    20    26 ar  
    47    20    29 ar  
    48    20    30 1   
    49    21    22 ar  
    50    21    30 1   
    51    22    23 ar  
    52    22    46 1   
    53    23    47 1   
    54    24    50 1   
    55    24    51 1   
    56    24    52 1   
    57    24    57 1   
    58    25    53 1   
    59    28    57 1   
    60    30    54 1   
    61    48    57 1   
    62    49    57 1   
@<TRIPOS>SUBSTRUCTURE
     1 981         1 TEMP              0 ****  ****    0 ROOT
