@<TRIPOS>MOLECULE
982
   22    23     1     0     0
SMALL
abcg2


@<TRIPOS>ATOM
      1 C1          -1.4080     2.1370     0.3920 ca         1 982      -0.025000
      2 C2          -2.6950     2.6210     0.2630 ca         1 982      -0.214000
      3 C3          -3.7380     1.7330    -0.0180 ca         1 982       0.293900
      4 N1          -3.5750     0.4280    -0.1720 nb         1 982      -0.663000
      5 C5          -2.3360    -0.0250    -0.0490 ca         1 982       0.334300
      6 C6          -1.2100     0.7670     0.2270 ca         1 982      -0.117800
      7 S10         -1.9060    -1.6960    -0.2150 ss         1 982      -0.144900
      8 C11         -0.2250    -1.3400     0.0820 cc         1 982      -0.104600
      9 C12         -0.0060    -0.0150     0.3050 cd         1 982       0.109900
     10 C13          0.7010    -2.5270     0.0710 c          1 982       0.731200
     11 O14          1.9090    -2.3200     0.2650 o          1 982      -0.705000
     12 O15          1.1690     0.5770     0.5920 os         1 982      -0.302100
     13 C16          1.9990     0.8260    -0.5390 c3         1 982       0.023600
     14 C17          3.2620     1.5970    -0.1340 c          1 982       0.730000
     15 O20          3.4340     1.8640     1.0640 o          1 982      -0.742000
     16 O21          0.1290    -3.6170    -0.1340 o          1 982      -0.705000
     17 O22          4.0080     1.8730    -1.0950 o          1 982      -0.742000
     18 HC1         -0.5790     2.7980     0.6110 ha         1 982       0.135000
     19 HC2         -2.9080     3.6750     0.3760 ha         1 982       0.090000
     20 HC3         -4.7510     2.1060    -0.1190 h4         1 982      -0.020900
     21 H161         1.4490     1.4070    -1.2890 h1         1 982       0.019200
     22 H162         2.2880    -0.1210    -1.0030 h1         1 982       0.019200
@<TRIPOS>BOND
     1     1     2 ar  
     2     1     6 ar  
     3     1    18 1   
     4     2     3 ar  
     5     2    19 1   
     6     3     4 ar  
     7     3    20 1   
     8     4     5 ar  
     9     5     6 ar  
    10     5     7 1   
    11     6     9 1   
    12     7     8 1   
    13     8     9 2   
    14     8    10 1   
    15     9    12 1   
    16    10    11 1   
    17    10    16 1   
    18    12    13 1   
    19    13    14 1   
    20    13    21 1   
    21    13    22 1   
    22    14    15 1   
    23    14    17 1   
@<TRIPOS>SUBSTRUCTURE
     1 982         1 TEMP              0 ****  ****    0 ROOT
