@<TRIPOS>MOLECULE
982
   22    23     1     0     0
SMALL
No Charge or Current Charge


@<TRIPOS>ATOM
      1 C1          -1.2600     2.0580     0.2670 ca         1 982      -0.025000
      2 C2          -2.5370     2.6400     0.1530 ca         1 982      -0.214000
      3 C3          -3.6590     1.8130    -0.0660 ca         1 982       0.293900
      4 N1          -3.5770     0.4650    -0.1660 nb         1 982      -0.663000
      5 C5          -2.3440    -0.0780    -0.0560 ca         1 982       0.334300
      6 C6          -1.1940     0.6620     0.1420 ca         1 982      -0.117800
      7 S10         -2.0610    -1.8450    -0.1410 ss         1 982      -0.144900
      8 C11         -0.3060    -1.5800     0.1480 cc         1 982      -0.104600
      9 C12         -0.0530    -0.2230     0.2280 cd         1 982       0.109900
     10 C13          0.6820    -2.6920     0.2720 c          1 982       0.731200
     11 O14          1.8660    -2.4500     0.4580 o          1 982      -0.705000
     12 O15          1.1850     0.3010     0.4810 os         1 982      -0.302100
     13 C16          1.8430     1.0550    -0.5670 c3         1 982       0.023600
     14 C17          3.1950     1.6920    -0.1200 c          1 982       0.730000
     15 O20          3.5670     1.5830     1.0430 o          1 982      -0.742000
     16 O21          0.2700    -3.8400     0.1770 o          1 982      -0.705000
     17 O22          3.8420     2.2990    -0.9640 o          1 982      -0.742000
     18 HC1         -0.3780     2.6650     0.4560 ha         1 982       0.135000
     19 HC2         -2.6630     3.7150     0.2380 ha         1 982       0.090000
     20 HC3         -4.6560     2.2420    -0.1550 h4         1 982      -0.020900
     21 H161         1.2000     1.8670    -0.9260 h1         1 982       0.019200
     22 H162         2.0490     0.3990    -1.4220 h1         1 982       0.019200
@<TRIPOS>BOND
     1     1     2 ar  
     2     1     6 ar  
     3     1    18 1   
     4     2     3 ar  
     5     2    19 1   
     6     3     4 ar  
     7     3    20 1   
     8     4     5 ar  
     9     5     6 ar  
    10     5     7 1   
    11     6     9 1   
    12     7     8 1   
    13     8     9 2   
    14     8    10 1   
    15     9    12 1   
    16    10    11 1   
    17    10    16 1   
    18    12    13 1   
    19    13    14 1   
    20    13    21 1   
    21    13    22 1   
    22    14    15 1   
    23    14    17 1   
@<TRIPOS>SUBSTRUCTURE
     1 982         1 TEMP              0 ****  ****    0 ROOT
