@<TRIPOS>MOLECULE
983
   82    84     1     0     0
SMALL
No Charge or Current Charge


@<TRIPOS>ATOM
      1 C49          5.6420     1.6460    -3.0950 ca         1 983      -0.084500
      2 C50          6.0030     1.7130    -4.4520 ca         1 983      -0.120500
      3 C51          6.4000     0.5500    -5.1330 ca         1 983      -0.110000
      4 C52          6.4340    -0.6810    -4.4560 ca         1 983      -0.120500
      5 C53          6.0730    -0.7490    -3.0990 ca         1 983      -0.084500
      6 C48          5.6770     0.4150    -2.4100 ca         1 983      -0.086300
      7 C47          5.2870     0.3450    -0.9390 c3         1 983       0.228900
      8 O46          3.8630     0.1820    -0.8550 os         1 983      -0.459100
      9 C44          3.3120     0.1280     0.3870 c          1 983       0.641100
     10 O45          3.9220     0.1860     1.4430 o          1 983      -0.538000
     11 N43          1.9570     0.0070     0.2610 ns         1 983      -0.486900
     12 C34          1.0110     0.0230     1.3720 c3         1 983       0.162700
     13 C35          0.3390     1.4110     1.4850 c3         1 983      -0.070100
     14 C36          1.3330     2.5550     1.6530 ca         1 983      -0.064300
     15 C37          1.7980     3.2660     0.5290 ca         1 983      -0.102500
     16 C38          2.7230     4.3130     0.6850 ca         1 983      -0.114500
     17 C41          3.1870     4.6560     1.9660 ca         1 983      -0.127000
     18 C40          2.7270     3.9510     3.0900 ca         1 983      -0.114500
     19 C39          1.8030     2.9030     2.9350 ca         1 983      -0.102500
     20 C33         -0.0440    -1.0790     1.1980 c3         1 983      -0.379400
     21 S32          0.6160    -2.7390     1.2660 s6         1 983       1.181100
     22 O32          1.3380    -3.0620     0.0330 o          1 983      -0.569000
     23 O33          1.2540    -2.9480     2.5660 o          1 983      -0.569000
     24 N31         -0.7510    -3.7040     1.2900 n7         1 983      -0.816300
     25 C27         -1.8440    -3.5610     0.2390 c3         1 983      -0.135500
     26 C28         -2.2120    -4.9520    -0.3800 c3         1 983      -0.013700
     27 C30         -2.9780    -4.8000    -1.7210 c3         1 983      -0.087600
     28 C29         -0.9850    -5.8760    -0.6050 c3         1 983      -0.087600
     29 P24         -3.3620    -2.5670     0.8440 p5         1 983       1.352000
     30 O25         -3.0790    -2.1580     2.2560 o          1 983      -0.793000
     31 O26         -4.6380    -3.3410     0.7310 o          1 983      -0.793000
     32 C15         -3.4190    -1.0810    -0.2650 c3         1 983      -0.398400
     33 C1          -3.7150     0.2830     0.4530 c3         1 983      -0.134400
     34 C2          -5.1260     0.3450     1.1080 c          1 983       0.732000
     35 O14         -6.1100     0.2360     0.3890 o          1 983      -0.729500
     36 O13         -5.2000     0.5600     2.3090 o          1 983      -0.729500
     37 C3          -3.4950     1.5140    -0.4360 ca         1 983       0.006700
     38 C8          -2.9890     2.6980     0.1400 ca         1 983      -0.129000
     39 C4          -3.8010     1.5030    -1.8130 ca         1 983      -0.091000
     40 C5          -3.5960     2.6510    -2.5970 ca         1 983      -0.141000
     41 C6          -3.0890     3.8230    -2.0120 ca         1 983      -0.130000
     42 C7          -2.7830     3.8550    -0.6380 ca         1 983      -0.122300
     43 C9          -2.2620     5.1350     0.0050 c3         1 983       0.202100
     44 N10         -0.8590     5.3950    -0.3510 n8         1 983      -1.002200
     45 H49          5.3330     2.5510    -2.5750 ha         1 983       0.118500
     46 H50          5.9750     2.6660    -4.9750 ha         1 983       0.106500
     47 H51          6.6790     0.6020    -6.1830 ha         1 983       0.102000
     48 H52          6.7390    -1.5830    -4.9820 ha         1 983       0.106500
     49 H53          6.1000    -1.7070    -2.5820 ha         1 983       0.118500
     50 H471         5.8040    -0.4970    -0.4600 h1         1 983       0.052700
     51 H472         5.6030     1.2680    -0.4340 h1         1 983       0.052700
     52 HN43         1.6060    -0.0300    -0.6860 hn         1 983       0.325500
     53 H34          1.5590    -0.1610     2.3090 h1         1 983       0.099700
     54 H351        -0.2760     1.5810     0.5930 hc         1 983       0.071700
     55 H352        -0.3590     1.4010     2.3310 hc         1 983       0.071700
     56 H37          1.4500     3.0020    -0.4670 ha         1 983       0.116500
     57 H38          3.0810     4.8560    -0.1870 ha         1 983       0.100500
     58 H41          3.9030     5.4660     2.0870 ha         1 983       0.095000
     59 H40          3.0870     4.2150     4.0820 ha         1 983       0.100500
     60 H39          1.4550     2.3590     3.8100 ha         1 983       0.116500
     61 H331        -0.7780    -1.0170     2.0060 h1         1 983       0.125700
     62 H332        -0.5390    -0.9830     0.2310 h1         1 983       0.125700
     63 HN31        -1.1280    -3.4500     2.2080 hn         1 983       0.512000
     64 H27         -1.4440    -2.9670    -0.5910 h1         1 983       0.038700
     65 H28         -2.8730    -5.4710     0.3270 hc         1 983       0.059700
     66 H301        -2.3480    -4.3070    -2.4710 hc         1 983       0.025367
     67 H302        -3.2660    -5.7820    -2.1140 hc         1 983       0.025367
     68 H303        -3.8930    -4.2110    -1.6100 hc         1 983       0.025367
     69 H291        -0.5110    -6.1530     0.3430 hc         1 983       0.025367
     70 H292        -1.2870    -6.8070    -1.0990 hc         1 983       0.025367
     71 H293        -0.2360    -5.3830    -1.2380 hc         1 983       0.025367
     72 H151        -2.4700    -1.0130    -0.8040 hc         1 983       0.030200
     73 H152        -4.1910    -1.2950    -1.0110 hc         1 983       0.030200
     74 H1          -2.9910     0.3640     1.2740 hc         1 983       0.059700
     75 H8          -2.7610     2.7220     1.2030 ha         1 983       0.101000
     76 H4          -4.2070     0.6090    -2.2800 ha         1 983       0.149000
     77 H5          -3.8350     2.6340    -3.6570 ha         1 983       0.083000
     78 H6          -2.9380     4.7090    -2.6240 ha         1 983       0.092000
     79 H91         -2.8720     5.9880    -0.3240 h1         1 983       0.023200
     80 H92         -2.3370     5.0640     1.0990 h1         1 983       0.023200
     81 H101        -0.5330     6.2140     0.1730 hn         1 983       0.383000
     82 H102        -0.2870     4.6270     0.0140 hn         1 983       0.383000
@<TRIPOS>BOND
     1     1     2 ar  
     2     1     6 ar  
     3     1    45 1   
     4     2     3 ar  
     5     2    46 1   
     6     3     4 ar  
     7     3    47 1   
     8     4     5 ar  
     9     4    48 1   
    10     5     6 ar  
    11     5    49 1   
    12     6     7 1   
    13     7     8 1   
    14     7    50 1   
    15     7    51 1   
    16     8     9 1   
    17     9    10 2   
    18     9    11 1   
    19    11    12 1   
    20    11    52 1   
    21    12    13 1   
    22    12    20 1   
    23    12    53 1   
    24    13    14 1   
    25    13    54 1   
    26    13    55 1   
    27    14    15 ar  
    28    14    19 ar  
    29    15    16 ar  
    30    15    56 1   
    31    16    17 ar  
    32    16    57 1   
    33    17    18 ar  
    34    17    58 1   
    35    18    19 ar  
    36    18    59 1   
    37    19    60 1   
    38    20    21 1   
    39    20    61 1   
    40    20    62 1   
    41    21    22 2   
    42    21    23 2   
    43    21    24 1   
    44    24    25 1   
    45    24    63 1   
    46    25    26 1   
    47    25    29 1   
    48    25    64 1   
    49    26    27 1   
    50    26    28 1   
    51    26    65 1   
    52    27    66 1   
    53    27    67 1   
    54    27    68 1   
    55    28    69 1   
    56    28    70 1   
    57    28    71 1   
    58    29    30 1   
    59    29    31 1   
    60    29    32 1   
    61    32    33 1   
    62    32    72 1   
    63    32    73 1   
    64    33    34 1   
    65    33    37 1   
    66    33    74 1   
    67    34    35 1   
    68    34    36 1   
    69    37    38 ar  
    70    37    39 ar  
    71    38    42 ar  
    72    38    75 1   
    73    39    40 ar  
    74    39    76 1   
    75    40    41 ar  
    76    40    77 1   
    77    41    42 ar  
    78    41    78 1   
    79    42    43 1   
    80    43    44 1   
    81    43    79 1   
    82    43    80 1   
    83    44    81 1   
    84    44    82 1   
@<TRIPOS>SUBSTRUCTURE
     1 983         1 TEMP              0 ****  ****    0 ROOT
