@<TRIPOS>MOLECULE
983
   82    84     1     0     0
SMALL
abcg2


@<TRIPOS>ATOM
      1 C49          6.1700     1.9800    -2.4680 ca         1 983      -0.084500
      2 C50          6.6450     2.2120    -3.7520 ca         1 983      -0.120500
      3 C51          7.0060     1.1440    -4.5620 ca         1 983      -0.110000
      4 C52          6.8910    -0.1560    -4.0850 ca         1 983      -0.120500
      5 C53          6.4170    -0.3840    -2.8010 ca         1 983      -0.084500
      6 C48          6.0540     0.6810    -1.9810 ca         1 983      -0.086300
      7 C47          5.5160     0.4310    -0.6060 c3         1 983       0.228900
      8 O46          4.1140     0.1820    -0.7470 os         1 983      -0.459100
      9 C44          3.4020     0.0980     0.3820 c          1 983       0.641100
     10 O45          3.8840     0.1450     1.4920 o          1 983      -0.538000
     11 N43          2.0910    -0.0710     0.1010 ns         1 983      -0.486900
     12 C34          1.0670     0.1350     1.0950 c3         1 983       0.162700
     13 C35          0.5200     1.5760     1.0640 c3         1 983      -0.070100
     14 C36          1.6150     2.5980     1.1400 ca         1 983      -0.064300
     15 C37          2.2430     3.0550    -0.0170 ca         1 983      -0.102500
     16 C38          3.3130     3.9360     0.0560 ca         1 983      -0.114500
     17 C41          3.7640     4.3830     1.2900 ca         1 983      -0.127000
     18 C40          3.1340     3.9480     2.4490 ca         1 983      -0.114500
     19 C39          2.0700     3.0610     2.3710 ca         1 983      -0.102500
     20 C33         -0.0930    -0.8280     0.8820 c3         1 983      -0.379400
     21 S32          0.4150    -2.5560     0.8670 s6         1 983       1.181100
     22 O32          0.8830    -2.8930    -0.4700 o          1 983      -0.569000
     23 O33          1.3050    -2.7600     2.0050 o          1 983      -0.569000
     24 N31         -0.9320    -3.4410     1.1740 n7         1 983      -0.816300
     25 C27         -2.0530    -3.4430     0.2220 c3         1 983      -0.135500
     26 C28         -2.3920    -4.8650    -0.2460 c3         1 983      -0.013700
     27 C30         -3.3970    -4.8110    -1.3930 c3         1 983      -0.087600
     28 C29         -1.1490    -5.6280    -0.6920 c3         1 983      -0.087600
     29 P24         -3.4870    -2.5240     1.0770 p5         1 983       1.352000
     30 O25         -2.8970    -2.0550     2.4040 o          1 983      -0.793000
     31 O26         -4.7290    -3.3820     1.1240 o          1 983      -0.793000
     32 C15         -3.7160    -1.0650    -0.0120 c3         1 983      -0.398400
     33 C1          -4.3830     0.1170     0.6950 c3         1 983      -0.134400
     34 C2          -5.8890    -0.1110     0.9650 c          1 983       0.732000
     35 O14         -6.5670    -0.6020     0.0420 o          1 983      -0.729500
     36 O13         -6.3100     0.2490     2.0830 o          1 983      -0.729500
     37 C3          -4.1460     1.3790    -0.1020 ca         1 983       0.006700
     38 C8          -3.1560     2.2720     0.3080 ca         1 983      -0.129000
     39 C4          -4.8330     1.6570    -1.2810 ca         1 983      -0.091000
     40 C5          -4.5290     2.7960    -2.0180 ca         1 983      -0.141000
     41 C6          -3.5370     3.6690    -1.5970 ca         1 983      -0.130000
     42 C7          -2.8380     3.4140    -0.4200 ca         1 983      -0.122300
     43 C9          -1.7550     4.3480     0.0550 c3         1 983       0.202100
     44 N10         -0.8130     4.6440    -1.0130 n8         1 983      -1.002200
     45 H49          5.8940     2.8170    -1.8370 ha         1 983       0.118500
     46 H50          6.7370     3.2270    -4.1170 ha         1 983       0.106500
     47 H51          7.3810     1.3250    -5.5620 ha         1 983       0.102000
     48 H52          7.1730    -0.9920    -4.7120 ha         1 983       0.106500
     49 H53          6.3330    -1.3990    -2.4310 ha         1 983       0.118500
     50 H471         6.0070    -0.4290    -0.1450 h1         1 983       0.052700
     51 H472         5.6780     1.3000     0.0360 h1         1 983       0.052700
     52 HN43         1.8090    -0.0210    -0.8670 hn         1 983       0.325500
     53 H34          1.5080    -0.0520     2.0730 h1         1 983       0.099700
     54 H351        -0.0660     1.7090     0.1490 hc         1 983       0.071700
     55 H352        -0.1730     1.6950     1.9000 hc         1 983       0.071700
     56 H37          1.8990     2.7150    -0.9860 ha         1 983       0.116500
     57 H38          3.7910     4.2770    -0.8540 ha         1 983       0.100500
     58 H41          4.5970     5.0720     1.3480 ha         1 983       0.095000
     59 H40          3.4730     4.2980     3.4150 ha         1 983       0.100500
     60 H39          1.5900     2.7180     3.2810 ha         1 983       0.116500
     61 H331        -0.8340    -0.7170     1.6760 h1         1 983       0.125700
     62 H332        -0.5840    -0.6290    -0.0720 h1         1 983       0.125700
     63 HN31        -1.2750    -3.2120     2.1110 hn         1 983       0.512000
     64 H27         -1.7690    -2.8760    -0.6720 h1         1 983       0.038700
     65 H28         -2.8490    -5.4050     0.5900 hc         1 983       0.059700
     66 H301        -2.9810    -4.2700    -2.2480 hc         1 983       0.025367
     67 H302        -3.6490    -5.8160    -1.7340 hc         1 983       0.025367
     68 H303        -4.3210    -4.3190    -1.0940 hc         1 983       0.025367
     69 H291        -0.4070    -5.7120     0.1020 hc         1 983       0.025367
     70 H292        -1.4190    -6.6390    -1.0030 hc         1 983       0.025367
     71 H293        -0.6720    -5.1360    -1.5420 hc         1 983       0.025367
     72 H151        -2.7270    -0.7530    -0.3590 hc         1 983       0.030200
     73 H152        -4.2820    -1.3490    -0.9020 hc         1 983       0.030200
     74 H1          -3.8830     0.2520     1.6580 hc         1 983       0.059700
     75 H8          -2.6100     2.0600     1.2220 ha         1 983       0.101000
     76 H4          -5.6030     0.9790    -1.6240 ha         1 983       0.149000
     77 H5          -5.0710     3.0010    -2.9330 ha         1 983       0.083000
     78 H6          -3.3010     4.5480    -2.1850 ha         1 983       0.092000
     79 H91         -2.2070     5.2930     0.3740 h1         1 983       0.023200
     80 H92         -1.2890     3.9210     0.9530 h1         1 983       0.023200
     81 H101        -0.0680     5.2270    -0.6520 hn         1 983       0.383000
     82 H102        -0.3710     3.7880    -1.3220 hn         1 983       0.383000
@<TRIPOS>BOND
     1     1     2 ar  
     2     1     6 ar  
     3     1    45 1   
     4     2     3 ar  
     5     2    46 1   
     6     3     4 ar  
     7     3    47 1   
     8     4     5 ar  
     9     4    48 1   
    10     5     6 ar  
    11     5    49 1   
    12     6     7 1   
    13     7     8 1   
    14     7    50 1   
    15     7    51 1   
    16     8     9 1   
    17     9    10 2   
    18     9    11 1   
    19    11    12 1   
    20    11    52 1   
    21    12    13 1   
    22    12    20 1   
    23    12    53 1   
    24    13    14 1   
    25    13    54 1   
    26    13    55 1   
    27    14    15 ar  
    28    14    19 ar  
    29    15    16 ar  
    30    15    56 1   
    31    16    17 ar  
    32    16    57 1   
    33    17    18 ar  
    34    17    58 1   
    35    18    19 ar  
    36    18    59 1   
    37    19    60 1   
    38    20    21 1   
    39    20    61 1   
    40    20    62 1   
    41    21    22 2   
    42    21    23 2   
    43    21    24 1   
    44    24    25 1   
    45    24    63 1   
    46    25    26 1   
    47    25    29 1   
    48    25    64 1   
    49    26    27 1   
    50    26    28 1   
    51    26    65 1   
    52    27    66 1   
    53    27    67 1   
    54    27    68 1   
    55    28    69 1   
    56    28    70 1   
    57    28    71 1   
    58    29    30 1   
    59    29    31 1   
    60    29    32 1   
    61    32    33 1   
    62    32    72 1   
    63    32    73 1   
    64    33    34 1   
    65    33    37 1   
    66    33    74 1   
    67    34    35 1   
    68    34    36 1   
    69    37    38 ar  
    70    37    39 ar  
    71    38    42 ar  
    72    38    75 1   
    73    39    40 ar  
    74    39    76 1   
    75    40    41 ar  
    76    40    77 1   
    77    41    42 ar  
    78    41    78 1   
    79    42    43 1   
    80    43    44 1   
    81    43    79 1   
    82    43    80 1   
    83    44    81 1   
    84    44    82 1   
@<TRIPOS>SUBSTRUCTURE
     1 983         1 TEMP              0 ****  ****    0 ROOT
