@<TRIPOS>MOLECULE
984
   63    67     1     0     0
SMALL
No Charge or Current Charge


@<TRIPOS>ATOM
      1 N1           1.0980     0.3940     2.0010 na         1 984      -0.146500
      2 C2          -0.0010    -0.0650     2.7150 cc         1 984       0.424800
      3 N3          -1.0080    -0.3210     1.8900 nd         1 984      -0.672000
      4 C4          -0.5650    -0.0580     0.6090 cd         1 984       0.330500
      5 C5           0.7280     0.4130     0.6720 cc         1 984      -0.252500
      6 C6           2.4350     0.7100     2.5420 c3         1 984       0.064600
      7 C7           3.3960    -0.4950     2.4860 c3         1 984      -0.099400
      8 C10          4.7940    -0.1730     3.0480 c3         1 984      -0.090100
      9 C16         -0.0260    -0.2360     4.2260 c6         1 984      -0.086000
     10 C17         -0.4550     1.0860     4.9160 c6         1 984      -0.070400
     11 C18         -0.5250     0.9160     6.4530 c6         1 984       0.165300
     12 N19         -1.4350    -0.1960     6.8420 n3         1 984      -0.712600
     13 C20         -1.0250    -1.4850     6.2200 c6         1 984       0.165300
     14 C21         -0.9770    -1.3800     4.6760 c6         1 984      -0.070400
     15 C31         -1.5930    -0.3060     8.3080 c3         1 984       0.152100
     16 C35         -1.4880    -0.1740    -0.5530 ca         1 984      -0.081500
     17 C36          1.5960     0.6150    -0.4830 ca         1 984       0.243500
     18 C37         -1.2780     0.5340    -1.7610 ca         1 984      -0.082000
     19 C38         -2.1780     0.4210    -2.8340 ca         1 984       0.113000
     20 C39         -3.3260    -0.3840    -2.7100 ca         1 984       0.117000
     21 C40         -3.5730    -1.0560    -1.5040 ca         1 984      -0.104000
     22 C41         -2.6690    -0.9430    -0.4320 ca         1 984      -0.073000
     23 Cl45        -1.8450     1.3110    -4.3210 cl         1 984      -0.185000
     24 Cl46        -4.4780    -0.5460    -4.0360 cl         1 984      -0.180000
     25 C47          2.3000     1.8190    -0.6520 ca         1 984      -0.289000
     26 C48          3.1010     1.9550    -1.7960 ca         1 984       0.150900
     27 N49          3.1910     0.9710    -2.7090 nb         1 984      -0.231000
     28 C50          2.4780    -0.1450    -2.4580 ca         1 984       0.390900
     29 N51          1.6920    -0.3740    -1.3940 nb         1 984      -0.239000
     30 N54          2.5290    -1.1760    -3.3860 nu         1 984      -0.898100
     31 C55          3.2100    -1.1630    -4.6530 cx         1 984       0.185500
     32 C56          2.6520    -2.0370    -5.7470 cx         1 984      -0.137400
     33 C57          2.4830    -0.5400    -5.8180 cx         1 984      -0.137400
     34 HC61         2.3360     1.0520     3.5800 h1         1 984       0.064700
     35 HC62         2.8650     1.5420     1.9730 h1         1 984       0.064700
     36 HC71         3.4970    -0.8300     1.4460 hc         1 984       0.057200
     37 HC72         2.9660    -1.3310     3.0510 hc         1 984       0.057200
     38 H101         5.4430    -1.0550     2.9870 hc         1 984       0.038033
     39 H102         5.2640     0.6380     2.4780 hc         1 984       0.038033
     40 H103         4.7290     0.1340     4.0990 hc         1 984       0.038033
     41 H16          0.9800    -0.4970     4.5800 hc         1 984       0.045700
     42 H171         0.2490     1.8920     4.6680 hc         1 984       0.060200
     43 H172        -1.4380     1.4030     4.5400 hc         1 984       0.060200
     44 H181         0.4890     0.7290     6.8390 h1         1 984       0.029950
     45 H182        -0.8700     1.8620     6.8970 h1         1 984       0.029950
     46 H201        -0.0340    -1.7880     6.5910 h1         1 984       0.029950
     47 H202        -1.7310    -2.2820     6.4960 h1         1 984       0.029950
     48 H211        -1.9940    -1.2040     4.3010 hc         1 984       0.060200
     49 H212        -0.6450    -2.3370     4.2510 hc         1 984       0.060200
     50 H311        -2.3180    -1.0900     8.5630 h1         1 984       0.030033
     51 H312        -0.6370    -0.5520     8.7890 h1         1 984       0.030033
     52 H313        -1.9580     0.6400     8.7310 h1         1 984       0.030033
     53 H37         -0.4340     1.2040    -1.8780 ha         1 984       0.129000
     54 H40         -4.4670    -1.6660    -1.3980 ha         1 984       0.131000
     55 H41         -2.8840    -1.4780     0.4910 ha         1 984       0.139000
     56 H47          2.2150     2.6290     0.0670 ha         1 984       0.136000
     57 H48          3.6680     2.8640    -1.9900 h4         1 984       0.022100
     58 H54          1.9860    -1.9960    -3.1130 hn         1 984       0.515000
     59 H55          4.2950    -1.0370    -4.6030 h1         1 984       0.092700
     60 H561         3.3600    -2.5010    -6.4290 hc         1 984       0.079450
     61 H562         1.7700    -2.6360    -5.5310 hc         1 984       0.079450
     62 H571         1.4920    -0.1290    -5.6400 hc         1 984       0.079450
     63 H572         3.0780     0.0060    -6.5450 hc         1 984       0.079450
@<TRIPOS>BOND
     1     1     2 1   
     2     1     5 1   
     3     1     6 1   
     4     2     3 2   
     5     2     9 1   
     6     3     4 1   
     7     4     5 2   
     8     4    16 1   
     9     5    17 1   
    10     6     7 1   
    11     6    34 1   
    12     6    35 1   
    13     7     8 1   
    14     7    36 1   
    15     7    37 1   
    16     8    38 1   
    17     8    39 1   
    18     8    40 1   
    19     9    10 1   
    20     9    14 1   
    21     9    41 1   
    22    10    11 1   
    23    10    42 1   
    24    10    43 1   
    25    11    12 1   
    26    11    44 1   
    27    11    45 1   
    28    12    13 1   
    29    12    15 1   
    30    13    14 1   
    31    13    46 1   
    32    13    47 1   
    33    14    48 1   
    34    14    49 1   
    35    15    50 1   
    36    15    51 1   
    37    15    52 1   
    38    16    18 ar  
    39    16    22 ar  
    40    17    25 ar  
    41    17    29 ar  
    42    18    19 ar  
    43    18    53 1   
    44    19    20 ar  
    45    19    23 1   
    46    20    21 ar  
    47    20    24 1   
    48    21    22 ar  
    49    21    54 1   
    50    22    55 1   
    51    25    26 ar  
    52    25    56 1   
    53    26    27 ar  
    54    26    57 1   
    55    27    28 ar  
    56    28    29 ar  
    57    28    30 1   
    58    30    31 1   
    59    30    58 1   
    60    31    32 1   
    61    31    33 1   
    62    31    59 1   
    63    32    33 1   
    64    32    60 1   
    65    32    61 1   
    66    33    62 1   
    67    33    63 1   
@<TRIPOS>SUBSTRUCTURE
     1 984         1 TEMP              0 ****  ****    0 ROOT
