@<TRIPOS>MOLECULE
984
   63    67     1     0     0
SMALL
bcc


@<TRIPOS>ATOM
      1 N1           1.1840     0.4160     1.9560 na         1 984      -0.167900
      2 C2           0.0720     0.1630     2.6940 cc         1 984       0.424800
      3 N3          -0.9650    -0.0570     1.9250 nd         1 984      -0.672000
      4 C4          -0.5240     0.0350     0.6400 cd         1 984       0.395800
      5 C5           0.8220     0.3200     0.6330 cc         1 984      -0.267100
      6 C6           2.5410     0.5240     2.4690 c3         1 984       0.035300
      7 C7           3.1550    -0.8320     2.7910 c3         1 984      -0.099400
      8 C10          4.5930    -0.6830     3.2660 c3         1 984      -0.090100
      9 C16          0.0270     0.1300     4.1860 c6         1 984      -0.086000
     10 C17         -0.9700     1.1530     4.7360 c6         1 984      -0.070400
     11 C18         -1.0450     1.0620     6.2520 c6         1 984       0.165300
     12 N19         -1.4090    -0.2750     6.6830 n3         1 984      -0.712600
     13 C20         -0.4490    -1.2580     6.2190 c6         1 984       0.165300
     14 C21         -0.3480    -1.2620     4.7020 c6         1 984      -0.070400
     15 C31         -1.5760    -0.3370     8.1160 c3         1 984       0.152100
     16 C35         -1.4460    -0.1400    -0.4810 ca         1 984      -0.081500
     17 C36          1.7350     0.5170    -0.4970 ca         1 984       0.571800
     18 C37         -1.2470     0.4910    -1.7070 ca         1 984      -0.100000
     19 C38         -2.1230     0.2860    -2.7590 ca         1 984       0.021400
     20 C39         -3.2330    -0.5330    -2.5980 ca         1 984       0.025400
     21 C40         -3.4580    -1.1420    -1.3720 ca         1 984      -0.122000
     22 C41         -2.5740    -0.9470    -0.3260 ca         1 984      -0.091000
     23 CL45        -1.8190     1.0720    -4.2640 cl         1 984      -0.093400
     24 CL46        -4.3320    -0.7960    -3.8980 cl         1 984      -0.088400
     25 C47          2.4810     1.6840    -0.6450 ca         1 984      -0.437600
     26 C48          3.2400     1.7730    -1.7990 ca         1 984       0.479200
     27 N49          3.2560     0.8370    -2.7320 nb         1 984      -0.757000
     28 C50          2.4890    -0.2350    -2.5040 ca         1 984       0.916900
     29 N51          1.7510    -0.4440    -1.4080 nb         1 984      -0.765000
     30 N54          2.4460    -1.1940    -3.4470 nu         1 984      -0.842900
     31 C55          3.0530    -1.0680    -4.7270 cx         1 984       0.185500
     32 C56          2.3200    -1.6480    -5.8910 cx         1 984      -0.137400
     33 C57          2.4260    -0.1610    -5.7410 cx         1 984      -0.137400
     34 HC61         2.5250     1.1630     3.3520 h1         1 984       0.064700
     35 HC62         3.1490     1.0400     1.7280 h1         1 984       0.064700
     36 HC71         3.1150    -1.4650     1.9010 hc         1 984       0.057200
     37 HC72         2.5590    -1.3340     3.5580 hc         1 984       0.057200
     38 H101         5.0240    -1.6510     3.5170 hc         1 984       0.038033
     39 H102         5.2180    -0.2300     2.4960 hc         1 984       0.038033
     40 H103         4.6520    -0.0530     4.1560 hc         1 984       0.038033
     41 H16          1.0160     0.3830     4.5830 hc         1 984       0.045700
     42 H171        -0.6770     2.1640     4.4450 hc         1 984       0.060200
     43 H172        -1.9570     0.9620     4.3090 hc         1 984       0.060200
     44 H181        -0.0780     1.3750     6.6870 h1         1 984       0.029950
     45 H182        -1.7960     1.7640     6.6230 h1         1 984       0.029950
     46 H201         0.5550    -1.0750     6.6450 h1         1 984       0.029950
     47 H202        -0.7610    -2.2450     6.5690 h1         1 984       0.029950
     48 H211        -1.3040    -1.5630     4.2660 hc         1 984       0.060200
     49 H212         0.3970    -2.0000     4.3930 hc         1 984       0.060200
     50 H311        -1.8890    -1.3390     8.4140 h1         1 984       0.030033
     51 H312        -0.6570    -0.0950     8.6740 h1         1 984       0.030033
     52 H313        -2.3500     0.3640     8.4350 h1         1 984       0.030033
     53 H37         -0.4170     1.1670    -1.8530 ha         1 984       0.147000
     54 H40         -4.3240    -1.7770    -1.2410 ha         1 984       0.149000
     55 H41         -2.7570    -1.4370     0.6210 ha         1 984       0.157000
     56 H47          2.4460     2.4910     0.0710 ha         1 984       0.154000
     57 H48          3.8540     2.6480    -1.9820 h4         1 984       0.022100
     58 H54          1.8820    -2.0040    -3.2470 hn         1 984       0.459800
     59 H55          4.1360    -1.1430    -4.7410 h1         1 984       0.092700
     60 H561         2.9030    -2.1380    -6.6590 hc         1 984       0.079450
     61 H562         1.3570    -2.1070    -5.6990 hc         1 984       0.079450
     62 H571         1.5350     0.3760    -5.4380 hc         1 984       0.079450
     63 H572         3.0800     0.3860    -6.4070 hc         1 984       0.079450
@<TRIPOS>BOND
     1     1     2 1   
     2     1     5 1   
     3     1     6 1   
     4     2     3 2   
     5     2     9 1   
     6     3     4 1   
     7     4     5 2   
     8     4    16 1   
     9     5    17 1   
    10     6     7 1   
    11     6    34 1   
    12     6    35 1   
    13     7     8 1   
    14     7    36 1   
    15     7    37 1   
    16     8    38 1   
    17     8    39 1   
    18     8    40 1   
    19     9    10 1   
    20     9    14 1   
    21     9    41 1   
    22    10    11 1   
    23    10    42 1   
    24    10    43 1   
    25    11    12 1   
    26    11    44 1   
    27    11    45 1   
    28    12    13 1   
    29    12    15 1   
    30    13    14 1   
    31    13    46 1   
    32    13    47 1   
    33    14    48 1   
    34    14    49 1   
    35    15    50 1   
    36    15    51 1   
    37    15    52 1   
    38    16    18 ar  
    39    16    22 ar  
    40    17    25 ar  
    41    17    29 ar  
    42    18    19 ar  
    43    18    53 1   
    44    19    20 ar  
    45    19    23 1   
    46    20    21 ar  
    47    20    24 1   
    48    21    22 ar  
    49    21    54 1   
    50    22    55 1   
    51    25    26 ar  
    52    25    56 1   
    53    26    27 ar  
    54    26    57 1   
    55    27    28 ar  
    56    28    29 ar  
    57    28    30 1   
    58    30    31 1   
    59    30    58 1   
    60    31    32 1   
    61    31    33 1   
    62    31    59 1   
    63    32    33 1   
    64    32    60 1   
    65    32    61 1   
    66    33    62 1   
    67    33    63 1   
@<TRIPOS>SUBSTRUCTURE
     1 984         1 TEMP              0 ****  ****    0 ROOT
