@<TRIPOS>MOLECULE
985
   46    48     1     0     0
SMALL
bcc


@<TRIPOS>ATOM
      1 C1          -0.2880     0.3370     0.8720 cp         1 985       0.434500
      2 N2          -1.4370    -0.3240     0.9710 nb         1 985      -0.739000
      3 C3          -2.4920     0.2720     1.5160 ca         1 985       0.585900
      4 C4          -2.3870     1.6250     1.9220 ca         1 985       0.212900
      5 N5          -1.2480     2.2730     1.8310 nb         1 985      -0.617000
      6 C6          -0.1880     1.6460     1.3280 ca         1 985       0.230900
      7 N1          -3.6160    -0.4690     1.6800 nh         1 985      -0.761300
      8 C2          -3.7620    -1.7130     0.9520 c3         1 985       0.227800
      9 C11         -3.9310    -1.5420    -0.5590 c3         1 985       0.148800
     10 N3          -4.6700    -0.3540    -0.9300 n3         1 985      -0.733600
     11 C5          -5.9000    -0.1240    -0.1840 c3         1 985       0.183800
     12 C14         -5.6780     0.7690     1.0360 c3         1 985      -0.108400
     13 C7          -4.8570     0.1220     2.1440 c3         1 985       0.226800
     14 C8          -4.8520    -0.2970    -2.3630 c3         1 985       0.165100
     15 C10          3.0080    -1.8140    -0.7960 ca         1 985      -0.121000
     16 C16          1.8540    -2.4760    -0.4150 ca         1 985      -0.147000
     17 C12          0.7800    -1.7780     0.1190 ca         1 985      -0.119000
     18 C13          0.8530    -0.3960     0.2810 cp         1 985      -0.163500
     19 C17          2.0170     0.2610    -0.1160 ca         1 985      -0.118000
     20 C15          3.1060    -0.4270    -0.6510 ca         1 985      -0.006800
     21 C18          4.2970     0.3370    -1.0320 ce         1 985      -0.192200
     22 C19          5.4480    -0.1500    -1.4980 cf         1 985      -0.162200
     23 C9           6.6290     0.7230    -1.8570 c          1 985       0.905800
     24 O1           7.6340     0.1150    -2.2820 o          1 985      -0.827300
     25 O2           6.5110     1.9550    -1.7020 o          1 985      -0.827300
     26 H4          -3.2320     2.1770     2.3140 h4         1 985       0.015100
     27 H6           0.7380     2.2050     1.2960 h4         1 985       0.038100
     28 H2          -2.9090    -2.3670     1.1340 h1         1 985       0.052700
     29 H2A         -4.6340    -2.2160     1.3700 h1         1 985       0.052700
     30 H11         -2.9470    -1.4820    -1.0290 h1         1 985       0.041700
     31 H11A        -4.4050    -2.4650    -0.9350 h1         1 985       0.041700
     32 H5          -6.6060     0.3900    -0.8390 h1         1 985       0.025200
     33 H5A         -6.3960    -1.0630     0.1080 h1         1 985       0.025200
     34 H14         -5.1940     1.6900     0.6990 hc         1 985       0.050200
     35 H14A        -6.6460     1.0560     1.4550 hc         1 985       0.050200
     36 H7          -5.4370    -0.6790     2.6080 h1         1 985       0.047200
     37 H7A         -4.6550     0.8390     2.9410 h1         1 985       0.047200
     38 H8          -5.4790    -1.1090    -2.7650 h1         1 985       0.028367
     39 H8A         -5.3090     0.6500    -2.6500 h1         1 985       0.028367
     40 H8B         -3.8830    -0.3580    -2.8620 h1         1 985       0.028367
     41 H12         -0.1160    -2.3050     0.4170 ha         1 985       0.132000
     42 H17          2.0930     1.3370    -0.0240 ha         1 985       0.132000
     43 H18          4.2180     1.4130    -0.9070 ha         1 985       0.141000
     44 H19          5.5810    -1.2200    -1.6350 ha         1 985       0.092000
     45 H10          3.8330    -2.3790    -1.2100 ha         1 985       0.136000
     46 H16          1.7880    -3.5500    -0.5340 ha         1 985       0.115000
@<TRIPOS>BOND
     1     1     2 ar  
     2     1     6 ar  
     3     1    18 1   
     4     2     3 ar  
     5     3     4 ar  
     6     3     7 1   
     7     4     5 ar  
     8     4    26 1   
     9     5     6 ar  
    10     6    27 1   
    11     7     8 1   
    12     7    13 1   
    13     8     9 1   
    14     8    28 1   
    15     8    29 1   
    16     9    10 1   
    17     9    30 1   
    18     9    31 1   
    19    10    11 1   
    20    10    14 1   
    21    11    12 1   
    22    11    32 1   
    23    11    33 1   
    24    12    13 1   
    25    12    34 1   
    26    12    35 1   
    27    13    36 1   
    28    13    37 1   
    29    14    38 1   
    30    14    39 1   
    31    14    40 1   
    32    15    16 ar  
    33    15    20 ar  
    34    15    45 1   
    35    16    17 ar  
    36    16    46 1   
    37    17    18 ar  
    38    17    41 1   
    39    18    19 ar  
    40    19    20 ar  
    41    19    42 1   
    42    20    21 1   
    43    21    22 2   
    44    21    43 1   
    45    22    23 1   
    46    22    44 1   
    47    23    24 1   
    48    23    25 1   
@<TRIPOS>SUBSTRUCTURE
     1 985         1 TEMP              0 ****  ****    0 ROOT
