@<TRIPOS>MOLECULE
985
   46    48     1     0     0
SMALL
No Charge or Current Charge


@<TRIPOS>ATOM
      1 C1          -0.1960     0.2910     0.9740 cp         1 985       0.434500
      2 N2          -1.3540    -0.4170     1.0710 nb         1 985      -0.739000
      3 C3          -2.4490     0.2420     1.5220 ca         1 985       0.585900
      4 C4          -2.3790     1.6260     1.8990 ca         1 985       0.212900
      5 N5          -1.2320     2.3590     1.8270 nb         1 985      -0.617000
      6 C6          -0.1500     1.6760     1.3620 ca         1 985       0.230900
      7 N1          -3.6260    -0.5510     1.6010 nh         1 985      -0.761300
      8 C2          -3.8070    -1.7480     0.7410 c3         1 985       0.227800
      9 C11         -4.1100    -1.4500    -0.7580 c3         1 985       0.148800
     10 N3          -4.9480    -0.2490    -1.0870 n3         1 985      -0.733600
     11 C5          -6.0970    -0.0020    -0.1770 c3         1 985       0.183800
     12 C14         -5.7230     0.7720     1.1120 c3         1 985      -0.108400
     13 C7          -4.8830    -0.0060     2.1460 c3         1 985       0.226800
     14 C8          -5.3230    -0.2180    -2.5180 c3         1 985       0.165100
     15 C10          3.2950    -1.8570    -0.5140 ca         1 985      -0.103000
     16 C16          2.1880    -2.5650    -0.0220 ca         1 985      -0.129000
     17 C12          1.0630    -1.8760     0.4550 ca         1 985      -0.101000
     18 C13          1.0140    -0.4540     0.4580 cp         1 985      -0.163500
     19 C17          2.1500     0.2350    -0.0520 ca         1 985      -0.100000
     20 C15          3.2840    -0.4490    -0.5340 ca         1 985      -0.006800
     21 C18          4.4430     0.3340    -1.0570 ce         1 985      -0.242200
     22 C19          5.6320    -0.1120    -1.5730 cf         1 985      -0.212200
     23 C9           6.7400     0.7560    -2.0750 c          1 985       0.695200
     24 O1           7.7390     0.2010    -2.5050 o          1 985      -0.722000
     25 O2           6.6070     1.9700    -2.0350 o          1 985      -0.722000
     26 H4          -3.2520     2.1620     2.2660 h4         1 985       0.015100
     27 H6           0.7770     2.2430     1.3110 h4         1 985       0.038100
     28 H2          -2.9370    -2.4160     0.8060 h1         1 985       0.052700
     29 H2A         -4.6490    -2.3380     1.1300 h1         1 985       0.052700
     30 H11         -3.1430    -1.3430    -1.2680 h1         1 985       0.041700
     31 H11A        -4.5770    -2.3530    -1.1750 h1         1 985       0.041700
     32 H5          -6.8460     0.6110    -0.6980 h1         1 985       0.025200
     33 H5A         -6.5940    -0.9460     0.0860 h1         1 985       0.025200
     34 H14         -5.1940     1.6890     0.8290 hc         1 985       0.050200
     35 H14A        -6.6500     1.0920     1.6020 hc         1 985       0.050200
     36 H7          -5.4970    -0.8290     2.5370 h1         1 985       0.047200
     37 H7A         -4.6760     0.6430     3.0070 h1         1 985       0.047200
     38 H8          -6.0100    -1.0400    -2.7600 h1         1 985       0.028367
     39 H8A         -5.8170     0.7300    -2.7710 h1         1 985       0.028367
     40 H8B         -4.4330    -0.3130    -3.1550 h1         1 985       0.028367
     41 H12          0.2240    -2.4550     0.8340 ha         1 985       0.114000
     42 H17          2.1530     1.3200    -0.0890 ha         1 985       0.114000
     43 H18          4.2970     1.4150    -1.0100 ha         1 985       0.191000
     44 H19          5.8220    -1.1800    -1.6390 ha         1 985       0.142000
     45 H10          4.1540    -2.4130    -0.8780 ha         1 985       0.118000
     46 H16          2.2020    -3.6520    -0.0110 ha         1 985       0.097000
@<TRIPOS>BOND
     1     1     2 ar  
     2     1     6 ar  
     3     1    18 1   
     4     2     3 ar  
     5     3     4 ar  
     6     3     7 1   
     7     4     5 ar  
     8     4    26 1   
     9     5     6 ar  
    10     6    27 1   
    11     7     8 1   
    12     7    13 1   
    13     8     9 1   
    14     8    28 1   
    15     8    29 1   
    16     9    10 1   
    17     9    30 1   
    18     9    31 1   
    19    10    11 1   
    20    10    14 1   
    21    11    12 1   
    22    11    32 1   
    23    11    33 1   
    24    12    13 1   
    25    12    34 1   
    26    12    35 1   
    27    13    36 1   
    28    13    37 1   
    29    14    38 1   
    30    14    39 1   
    31    14    40 1   
    32    15    16 ar  
    33    15    20 ar  
    34    15    45 1   
    35    16    17 ar  
    36    16    46 1   
    37    17    18 ar  
    38    17    41 1   
    39    18    19 ar  
    40    19    20 ar  
    41    19    42 1   
    42    20    21 1   
    43    21    22 2   
    44    21    43 1   
    45    22    23 1   
    46    22    44 1   
    47    23    24 1   
    48    23    25 1   
@<TRIPOS>SUBSTRUCTURE
     1 985         1 TEMP              0 ****  ****    0 ROOT
