@<TRIPOS>MOLECULE
986
   25    26     1     0     0
SMALL
No Charge or Current Charge


@<TRIPOS>ATOM
      1 C1         -31.7170     4.0280   -37.7860 c3         1 986      -0.100100
      2 C2         -31.9110     3.0030   -38.9220 c3         1 986       0.190500
      3 C3         -32.7270     3.5530   -40.1000 c3         1 986      -0.197400
      4 C4         -34.1890     3.7400   -39.7070 c          1 986       0.569000
      5 O          -34.6540     4.8280   -39.3910 o          1 986      -0.543000
      6 N1         -34.9670     2.6050   -39.7950 ns         1 986      -0.169000
      7 C5         -34.5510     1.2510   -39.7180 ca         1 986      -0.066000
      8 C10        -35.3790     0.2700   -40.2970 ca         1 986      -0.135000
      9 C9         -35.0240    -1.0870   -40.2390 ca         1 986      -0.091000
     10 C8         -33.8430    -1.4740   -39.5870 ca         1 986      -0.122000
     11 C7         -33.0200    -0.5040   -38.9890 ca         1 986      -0.068000
     12 C6         -33.3540     0.8630   -39.0510 ca         1 986       0.197000
     13 N2         -32.5270     1.7810   -38.3730 nu         1 986      -0.894200
     14 H1         -31.0630     3.6200   -37.0060 hc         1 986       0.046367
     15 H2         -31.2500     4.9430   -38.1710 hc         1 986       0.046367
     16 H3         -32.6740     4.2980   -37.3250 hc         1 986       0.046367
     17 H4         -30.9150     2.7510   -39.3150 h1         1 986       0.068700
     18 H5         -32.6560     2.8060   -40.9000 hc         1 986       0.075200
     19 H6         -32.3000     4.5040   -40.4350 hc         1 986       0.075200
     20 H7         -35.9630     2.7530   -39.7010 hn         1 986       0.158000
     21 H8         -36.2990     0.5610   -40.8000 ha         1 986       0.118000
     22 H9         -35.6650    -1.8380   -40.6940 ha         1 986       0.117000
     23 H10        -33.5690    -2.5250   -39.5360 ha         1 986       0.119000
     24 H11        -32.1160    -0.8160   -38.4730 ha         1 986       0.129000
     25 H12        -31.9800     1.3520   -37.6250 hn         1 986       0.430000
@<TRIPOS>BOND
     1     1     2 1   
     2     1    14 1   
     3     1    15 1   
     4     1    16 1   
     5     2     3 1   
     6     2    13 1   
     7     2    17 1   
     8     3     4 1   
     9     3    18 1   
    10     3    19 1   
    11     4     5 2   
    12     4     6 1   
    13     6     7 1   
    14     6    20 1   
    15     7     8 ar  
    16     7    12 ar  
    17     8     9 ar  
    18     8    21 1   
    19     9    10 ar  
    20     9    22 1   
    21    10    11 ar  
    22    10    23 1   
    23    11    12 ar  
    24    11    24 1   
    25    12    13 1   
    26    13    25 1   
@<TRIPOS>SUBSTRUCTURE
     1 986         1 TEMP              0 ****  ****    0 ROOT
