@<TRIPOS>MOLECULE
986
   25    26     1     0     0
SMALL
bcc


@<TRIPOS>ATOM
      1 C1         -31.5340     3.9270   -37.9030 c3         1 986      -0.100100
      2 C2         -31.9520     2.8380   -38.8780 c3         1 986       0.190500
      3 C3         -32.7980     3.4030   -40.0390 c3         1 986      -0.197400
      4 C4         -34.2330     3.6750   -39.6620 c          1 986       0.711500
      5 O          -34.7030     4.7960   -39.5680 o          1 986      -0.618500
      6 N1         -35.0030     2.5700   -39.4480 ns         1 986      -0.495100
      7 C5         -34.5630     1.2410   -39.5470 ca         1 986       0.026600
      8 C10        -35.3250     0.3000   -40.2320 ca         1 986      -0.153000
      9 C9         -34.8810    -1.0090   -40.3400 ca         1 986      -0.109000
     10 C8         -33.6670    -1.3830   -39.7810 ca         1 986      -0.140000
     11 C7         -32.9190    -0.4490   -39.0770 ca         1 986      -0.086000
     12 C6         -33.3640     0.8580   -38.9300 ca         1 986       0.058600
     13 N2         -32.6280     1.7750   -38.1350 nu         1 986      -0.700600
     14 H1         -30.9210     3.5130   -37.1030 hc         1 986       0.046367
     15 H2         -30.9530     4.6950   -38.4120 hc         1 986       0.046367
     16 H3         -32.4020     4.4100   -37.4490 hc         1 986       0.046367
     17 H4         -31.0500     2.4140   -39.3290 h1         1 986       0.068700
     18 H5         -32.7800     2.6990   -40.8760 hc         1 986       0.075200
     19 H6         -32.3510     4.3310   -40.3950 hc         1 986       0.075200
     20 H7         -35.9940     2.7290   -39.3300 hn         1 986       0.324500
     21 H8         -36.2610     0.6000   -40.6880 ha         1 986       0.136000
     22 H9         -35.4800    -1.7340   -40.8760 ha         1 986       0.135000
     23 H10        -33.3110    -2.4000   -39.8770 ha         1 986       0.137000
     24 H11        -31.9860    -0.7320   -38.6060 ha         1 986       0.147000
     25 H12        -33.2530     2.1990   -37.4560 hn         1 986       0.374800
@<TRIPOS>BOND
     1     1     2 1   
     2     1    14 1   
     3     1    15 1   
     4     1    16 1   
     5     2     3 1   
     6     2    13 1   
     7     2    17 1   
     8     3     4 1   
     9     3    18 1   
    10     3    19 1   
    11     4     5 2   
    12     4     6 1   
    13     6     7 1   
    14     6    20 1   
    15     7     8 ar  
    16     7    12 ar  
    17     8     9 ar  
    18     8    21 1   
    19     9    10 ar  
    20     9    22 1   
    21    10    11 ar  
    22    10    23 1   
    23    11    12 ar  
    24    11    24 1   
    25    12    13 1   
    26    13    25 1   
@<TRIPOS>SUBSTRUCTURE
     1 986         1 TEMP              0 ****  ****    0 ROOT
