@<TRIPOS>MOLECULE
987
   59    62     1     0     0
SMALL
abcg2


@<TRIPOS>ATOM
      1 C01          7.8640     2.9660    21.0580 c3         1 987      -0.102100
      2 C05          7.6690     4.3370    20.4050 c3         1 987       0.048700
      3 N07          7.0500     5.2770    21.3240 n          1 987      -0.393800
      4 C08          5.9410     4.9490    22.2290 c5         1 987       0.103000
      5 C11          5.4400     6.3290    22.6740 c5         1 987      -0.089400
      6 C14          6.7020     7.1840    22.5970 c5         1 987       0.123500
      7 N16          6.5210     8.6020    22.3010 n7         1 987      -0.848300
      8 S18          6.3670     9.6580    23.5490 sy         1 987       1.176600
      9 O19          5.2430     9.2260    24.3430 o          1 987      -0.537500
     10 O20          6.3590    10.9740    22.9560 o          1 987      -0.537500
     11 C21          7.8300     9.4850    24.5310 ca         1 987      -0.316500
     12 C22          9.0580     9.9470    24.0010 ca         1 987      -0.035000
     13 C24         10.2070     9.7800    24.7230 ca         1 987      -0.104000
     14 C26         10.1820     9.1490    25.9930 ca         1 987       0.008000
     15 C27         11.3610     8.9630    26.7500 ca         1 987      -0.103000
     16 C29         11.2870     8.3440    27.9690 ca         1 987       0.143000
     17 CL1         12.7430     8.1090    28.9090 cl         1 987      -0.201000
     18 C31         10.0670     7.8810    28.5020 ca         1 987      -0.107000
     19 C33          8.9150     8.0540    27.7810 ca         1 987      -0.074000
     20 C35          8.9390     8.6870    26.5150 ca         1 987      -0.070000
     21 C36          7.7620     8.8670    25.7520 ca         1 987       0.023000
     22 C38          7.4900     6.5370    21.4580 c          1 987       0.556000
     23 O39          8.3710     7.0960    20.8120 o          1 987      -0.564000
     24 C40          6.8240     4.2200    19.1220 c          1 987       0.592100
     25 O41          5.6190     4.4780    19.1640 o          1 987      -0.605100
     26 N42          7.4410     3.8060    17.9950 n          1 987      -0.404800
     27 C43          8.8630     3.4910    17.8430 c6         1 987       0.103000
     28 C46          9.0490     2.0440    17.3920 c6         1 987      -0.096400
     29 C49          8.2390     1.7420    16.1310 c6         1 987      -0.071400
     30 C52          6.7720     2.1200    16.3130 c6         1 987       0.141500
     31 N54          6.0220     1.8600    15.0840 n8         1 987      -0.995200
     32 C57          6.6650     3.5820    16.7760 c6         1 987       0.052000
     33 H1           8.4210     3.0740    21.9880 hc         1 987       0.050700
     34 H2           6.9060     2.4940    21.2720 hc         1 987       0.050700
     35 H3           8.4250     2.3070    20.3970 hc         1 987       0.050700
     36 H4           8.6380     4.7700    20.1660 h1         1 987       0.088700
     37 H5           5.1850     4.3760    21.7000 h1         1 987       0.060700
     38 H6           6.3070     4.3620    23.0750 h1         1 987       0.060700
     39 H7           4.7070     6.7110    21.9620 hc         1 987       0.083700
     40 H8           4.9950     6.3100    23.6650 hc         1 987       0.083700
     41 H9           7.3070     7.0460    23.5020 h1         1 987       0.063700
     42 H10          7.2000     8.9350    21.6180 hn         1 987       0.504000
     43 H11          9.0810    10.4280    23.0320 ha         1 987       0.131000
     44 H12         11.1530    10.1300    24.3300 ha         1 987       0.124000
     45 H13         12.3080     9.3110    26.3610 ha         1 987       0.136000
     46 H14         10.0520     7.3970    29.4690 ha         1 987       0.135000
     47 H15          7.9690     7.7030    28.1750 ha         1 987       0.124000
     48 H16          6.8160     8.5130    26.1380 ha         1 987       0.141000
     49 H17          9.3970     3.6720    18.7680 h1         1 987       0.052200
     50 H18          9.2750     4.1690    17.0880 h1         1 987       0.052200
     51 H19          8.7370     1.3760    18.1990 hc         1 987       0.050200
     52 H20         10.1120     1.8650    17.2140 hc         1 987       0.050200
     53 H21          8.3170     0.6850    15.8680 hc         1 987       0.051700
     54 H22          8.6440     2.3170    15.2900 hc         1 987       0.051700
     55 H23          6.3440     1.4920    17.1010 h1         1 987       0.068700
     56 H24          5.0470     2.1150    15.2090 hn         1 987       0.398500
     57 H25          6.3770     2.4480    14.3340 hn         1 987       0.398500
     58 H27          7.0560     4.2350    15.9880 h1         1 987       0.062200
     59 H28          5.6310     3.8490    16.9700 h1         1 987       0.062200
@<TRIPOS>BOND
     1     1     2 1   
     2     1    33 1   
     3     1    34 1   
     4     1    35 1   
     5     2     3 1   
     6     2    24 1   
     7     2    36 1   
     8     3     4 1   
     9     3    22 1   
    10     4     5 1   
    11     4    37 1   
    12     4    38 1   
    13     5     6 1   
    14     5    39 1   
    15     5    40 1   
    16     6     7 1   
    17     6    22 1   
    18     6    41 1   
    19     7     8 1   
    20     7    42 1   
    21     8     9 2   
    22     8    10 2   
    23     8    11 1   
    24    11    12 ar  
    25    11    21 ar  
    26    12    13 ar  
    27    12    43 1   
    28    13    14 ar  
    29    13    44 1   
    30    14    15 ar  
    31    14    20 ar  
    32    15    16 ar  
    33    15    45 1   
    34    16    17 1   
    35    16    18 ar  
    36    18    19 ar  
    37    18    46 1   
    38    19    20 ar  
    39    19    47 1   
    40    20    21 ar  
    41    21    48 1   
    42    22    23 2   
    43    24    25 2   
    44    24    26 1   
    45    26    27 1   
    46    26    32 1   
    47    27    28 1   
    48    27    49 1   
    49    27    50 1   
    50    28    29 1   
    51    28    51 1   
    52    28    52 1   
    53    29    30 1   
    54    29    53 1   
    55    29    54 1   
    56    30    31 1   
    57    30    32 1   
    58    30    55 1   
    59    31    56 1   
    60    31    57 1   
    61    32    58 1   
    62    32    59 1   
@<TRIPOS>SUBSTRUCTURE
     1 987         1 TEMP              0 ****  ****    0 ROOT
