@<TRIPOS>MOLECULE
987
   59    62     1     0     0
SMALL
No Charge or Current Charge


@<TRIPOS>ATOM
      1 C01          8.4790     2.9020    21.0790 c3         1 987      -0.102100
      2 C05          8.2170     4.2680    20.3930 c3         1 987       0.048700
      3 N07          7.9720     5.3660    21.3770 n          1 987      -0.393800
      4 C08          7.4650     5.1810    22.7540 c5         1 987       0.103000
      5 C11          6.7890     6.5530    23.0430 c5         1 987      -0.089400
      6 C14          7.6580     7.5420    22.2150 c5         1 987       0.123500
      7 N16          6.8330     8.7660    21.9290 n7         1 987      -0.848300
      8 S18          6.6110    10.0060    23.0240 sy         1 987       1.176600
      9 O19          5.2380     9.8770    23.5190 o          1 987      -0.537500
     10 O20          7.0740    11.1890    22.2980 o          1 987      -0.537500
     11 C21          7.8020     9.6350    24.3240 ca         1 987      -0.316500
     12 C22          9.1650     9.9580    24.1530 ca         1 987      -0.035000
     13 C24         10.0910     9.6620    25.1660 ca         1 987      -0.104000
     14 C26          9.6650     9.0490    26.3590 ca         1 987       0.008000
     15 C27         10.5940     8.7480    27.3730 ca         1 987      -0.103000
     16 C29         10.1620     8.1390    28.5620 ca         1 987       0.143000
     17 Cl1         11.3250     7.7630    29.8270 cl         1 987      -0.201000
     18 C31          8.8050     7.8270    28.7450 ca         1 987      -0.107000
     19 C33          7.8730     8.1260    27.7350 ca         1 987      -0.074000
     20 C35          8.3000     8.7370    26.5400 ca         1 987      -0.070000
     21 C36          7.3700     9.0360    25.5250 ca         1 987       0.023000
     22 C38          8.0330     6.7000    20.9640 c          1 987       0.556000
     23 O39          8.3270     7.0810    19.8350 o          1 987      -0.564000
     24 C40          7.0900     4.1350    19.3130 c          1 987       0.592100
     25 O41          5.9980     4.6740    19.4720 o          1 987      -0.605100
     26 N42          7.3040     3.2860    18.1940 n          1 987      -0.404800
     27 C43          8.6690     3.1690    17.5890 c6         1 987       0.103000
     28 C46          8.8420     1.9760    16.6200 c6         1 987      -0.096400
     29 C49          7.7310     1.9410    15.5560 c6         1 987      -0.071400
     30 C52          6.3620     1.8700    16.2570 c6         1 987       0.141500
     31 N54          5.2730     1.8080    15.2530 n8         1 987      -0.995200
     32 C57          6.1770     3.0690    17.2300 c6         1 987       0.052000
     33 H1           9.2850     2.9900    21.8180 hc         1 987       0.050700
     34 H2           7.5790     2.5390    21.5880 hc         1 987       0.050700
     35 H3           8.7770     2.1400    20.3500 hc         1 987       0.050700
     36 H4           9.1310     4.5430    19.8530 h1         1 987       0.088700
     37 H5           6.7480     4.3530    22.8330 h1         1 987       0.060700
     38 H6           8.2970     4.9890    23.4460 h1         1 987       0.060700
     39 H7           5.7540     6.5450    22.6820 hc         1 987       0.083700
     40 H8           6.7590     6.7820    24.1120 hc         1 987       0.083700
     41 H9           8.6060     7.7720    22.7190 h1         1 987       0.063700
     42 H10          7.2480     9.3040    21.1670 hn         1 987       0.504000
     43 H11          9.5120    10.4310    23.2350 ha         1 987       0.131000
     44 H12         11.1410     9.9090    25.0220 ha         1 987       0.124000
     45 H13         11.6460     8.9850    27.2430 ha         1 987       0.136000
     46 H14          8.4770     7.3550    29.6670 ha         1 987       0.135000
     47 H15          6.8230     7.8810    27.8850 ha         1 987       0.124000
     48 H16          6.3190     8.7950    25.6720 ha         1 987       0.141000
     49 H17          9.4350     3.0720    18.3690 h1         1 987       0.052200
     50 H18          8.8840     4.1010    17.0450 h1         1 987       0.052200
     51 H19          8.8330     1.0390    17.1940 hc         1 987       0.050200
     52 H20          9.8260     2.0340    16.1350 hc         1 987       0.050200
     53 H21          7.8700     1.0690    14.9010 hc         1 987       0.051700
     54 H22          7.7920     2.8350    14.9190 hc         1 987       0.051700
     55 H23          6.3220     0.9400    16.8470 h1         1 987       0.068700
     56 H24          4.3680     1.7960    15.7390 hn         1 987       0.398500
     57 H25          5.2520     2.6900    14.7270 hn         1 987       0.398500
     58 H27          6.0480     3.9910    16.6450 h1         1 987       0.062200
     59 H28          5.2460     2.9130    17.7940 h1         1 987       0.062200
@<TRIPOS>BOND
     1     1     2 1   
     2     1    33 1   
     3     1    34 1   
     4     1    35 1   
     5     2     3 1   
     6     2    24 1   
     7     2    36 1   
     8     3     4 1   
     9     3    22 1   
    10     4     5 1   
    11     4    37 1   
    12     4    38 1   
    13     5     6 1   
    14     5    39 1   
    15     5    40 1   
    16     6     7 1   
    17     6    22 1   
    18     6    41 1   
    19     7     8 1   
    20     7    42 1   
    21     8     9 2   
    22     8    10 2   
    23     8    11 1   
    24    11    12 ar  
    25    11    21 ar  
    26    12    13 ar  
    27    12    43 1   
    28    13    14 ar  
    29    13    44 1   
    30    14    15 ar  
    31    14    20 ar  
    32    15    16 ar  
    33    15    45 1   
    34    16    17 1   
    35    16    18 ar  
    36    18    19 ar  
    37    18    46 1   
    38    19    20 ar  
    39    19    47 1   
    40    20    21 ar  
    41    21    48 1   
    42    22    23 2   
    43    24    25 2   
    44    24    26 1   
    45    26    27 1   
    46    26    32 1   
    47    27    28 1   
    48    27    49 1   
    49    27    50 1   
    50    28    29 1   
    51    28    51 1   
    52    28    52 1   
    53    29    30 1   
    54    29    53 1   
    55    29    54 1   
    56    30    31 1   
    57    30    32 1   
    58    30    55 1   
    59    31    56 1   
    60    31    57 1   
    61    32    58 1   
    62    32    59 1   
@<TRIPOS>SUBSTRUCTURE
     1 987         1 TEMP              0 ****  ****    0 ROOT
