@<TRIPOS>MOLECULE
988
   41    44     1     0     0
SMALL
bcc


@<TRIPOS>ATOM
      1 C1          -1.4120     4.0670     0.8980 ca         1 988      -0.076000
      2 C2          -1.1910     2.6760     0.8080 ca         1 988      -0.146300
      3 C3           0.0200     2.2390     0.2170 ca         1 988       0.413600
      4 N4           0.9530     3.1080    -0.2290 nb         1 988      -0.667000
      5 C5           0.7160     4.3890    -0.1260 ca         1 988       0.424200
      6 C6          -0.4610     4.9290     0.4290 ca         1 988      -0.247300
      7 C13         -2.1260     1.7330     1.2880 ca         1 988      -0.100000
      8 C15         -1.8740     0.3920     1.2000 ca         1 988      -0.073300
      9 C17         -0.6670    -0.0390     0.6040 ca         1 988      -0.097000
     10 C19          0.2650     0.8390     0.1120 cp         1 988      -0.084300
     11 C22          1.5050     0.3240    -0.5050 cp         1 988      -0.031000
     12 C24          2.2560    -0.6350     0.1650 ca         1 988      -0.061000
     13 C25          3.3950    -1.1520    -0.4350 ca         1 988      -0.182200
     14 C26          3.8160    -0.7420    -1.6900 ca         1 988      -0.061000
     15 C27          3.0620     0.2130    -2.3530 ca         1 988      -0.145000
     16 C28          1.9220     0.7440    -1.7690 ca         1 988      -0.046000
     17 C35         -2.8570    -0.6320     1.7050 c3         1 988       0.009200
     18 C37         -3.3520    -1.5260     0.6010 ca         1 988      -0.044300
     19 C39         -3.0690    -2.8860     0.5790 ca         1 988      -0.243800
     20 C40         -3.5380    -3.6590    -0.4750 ca         1 988       0.402200
     21 N41         -4.2540    -3.1720    -1.4800 nb         1 988      -0.662000
     22 C42         -4.5270    -1.8700    -1.4570 ca         1 988       0.402200
     23 C43         -4.1030    -1.0150    -0.4540 ca         1 988      -0.243800
     24 N50          4.1730    -2.1530     0.2810 no         1 988       0.315200
     25 O52          3.7840    -2.5050     1.3700 o          1 988      -0.212000
     26 O54          5.1700    -2.5830    -0.2480 o          1 988      -0.212000
     27 H1          -2.3300     4.4340     1.3410 ha         1 988       0.139000
     28 H5           1.4880     5.0580    -0.4930 h4         1 988       0.022100
     29 H6          -0.5930     6.0000     0.4810 ha         1 988       0.146000
     30 H13         -3.0490     2.0900     1.7320 ha         1 988       0.136000
     31 H17         -0.4850    -1.1050     0.5120 ha         1 988       0.143000
     32 H24          1.9560    -0.9600     1.1510 ha         1 988       0.168000
     33 H26          4.7030    -1.1500    -2.1500 ha         1 988       0.168000
     34 H27          3.3640     0.5410    -3.3370 ha         1 988       0.146000
     35 H28          1.3420     1.4770    -2.3100 ha         1 988       0.151000
     36 H35         -2.3890    -1.2410     2.4820 hc         1 988       0.063200
     37 H35A        -3.7040    -0.1220     2.1680 hc         1 988       0.063200
     38 H39         -2.4930    -3.3460     1.3720 ha         1 988       0.141000
     39 H40         -3.3210    -4.7210    -0.5030 h4         1 988       0.020100
     40 H42         -5.1140    -1.4840    -2.2840 h4         1 988       0.020100
     41 H43         -4.3560     0.0370    -0.5000 ha         1 988       0.141000
@<TRIPOS>BOND
     1     1     2 ar  
     2     1     6 ar  
     3     1    27 1   
     4     2     3 ar  
     5     2     7 ar  
     6     3     4 ar  
     7     3    10 ar  
     8     4     5 ar  
     9     5     6 ar  
    10     5    28 1   
    11     6    29 1   
    12     7     8 ar  
    13     7    30 1   
    14     8     9 ar  
    15     8    17 1   
    16     9    10 ar  
    17     9    31 1   
    18    10    11 1   
    19    11    12 ar  
    20    11    16 ar  
    21    12    13 ar  
    22    12    32 1   
    23    13    14 ar  
    24    13    24 1   
    25    14    15 ar  
    26    14    33 1   
    27    15    16 ar  
    28    15    34 1   
    29    16    35 1   
    30    17    18 1   
    31    17    36 1   
    32    17    37 1   
    33    18    19 ar  
    34    18    23 ar  
    35    19    20 ar  
    36    19    38 1   
    37    20    21 ar  
    38    20    39 1   
    39    21    22 ar  
    40    22    23 ar  
    41    22    40 1   
    42    23    41 1   
    43    24    25 1   
    44    24    26 1   
@<TRIPOS>SUBSTRUCTURE
     1 988         1 TEMP              0 ****  ****    0 ROOT
