@<TRIPOS>MOLECULE
988
   41    44     1     0     0
SMALL
No Charge or Current Charge


@<TRIPOS>ATOM
      1 C1          -1.5850     3.8650     0.6380 ca         1 988      -0.058000
      2 C2          -1.2060     2.5110     0.6260 ca         1 988      -0.081000
      3 C3           0.0600     2.1360     0.0940 ca         1 988       0.283000
      4 N4           0.9120     3.0790    -0.3910 nb         1 988      -0.667000
      5 C5           0.5430     4.3800    -0.3750 ca         1 988       0.358900
      6 C6          -0.6910     4.8140     0.1250 ca         1 988      -0.164000
      7 C13         -2.0860     1.5460     1.1480 ca         1 988      -0.082000
      8 C15         -1.7260     0.1910     1.1590 ca         1 988      -0.073300
      9 C17         -0.4820    -0.1930     0.6350 ca         1 988      -0.079000
     10 C19          0.4230     0.7540     0.0940 cp         1 988      -0.019000
     11 C22          1.7290     0.2630    -0.4540 cp         1 988      -0.031000
     12 C24          2.5470    -0.6050     0.3120 ca         1 988      -0.043000
     13 C25          3.7750    -1.0980    -0.1920 ca         1 988      -0.182200
     14 C26          4.1870    -0.7150    -1.4900 ca         1 988      -0.043000
     15 C27          3.3820     0.1380    -2.2620 ca         1 988      -0.127000
     16 C28          2.1670     0.6200    -1.7520 ca         1 988      -0.028000
     17 C35         -2.6810    -0.8580     1.7150 c3         1 988       0.009200
     18 C37         -3.5050    -1.4960     0.6060 ca         1 988      -0.044300
     19 C39         -3.1110    -2.7050     0.0060 ca         1 988      -0.160500
     20 C40         -3.8980    -3.2540    -1.0210 ca         1 988       0.336900
     21 N41         -5.0340    -2.6710    -1.4710 nb         1 988      -0.662000
     22 C42         -5.4130    -1.5060    -0.8960 ca         1 988       0.336900
     23 C43         -4.6840    -0.8900     0.1360 ca         1 988      -0.160500
     24 N50          4.6270    -2.0100     0.6370 no         1 988       0.695200
     25 O52          4.2230    -2.3250     1.7650 o          1 988      -0.402000
     26 O54          5.6960    -2.4120     0.1570 o          1 988      -0.402000
     27 H1          -2.5490     4.1760     1.0370 ha         1 988       0.121000
     28 H5           1.2610     5.0940    -0.7780 h4         1 988       0.022100
     29 H6          -0.9430     5.8710     0.1160 ha         1 988       0.128000
     30 H13         -3.0510     1.8510     1.5470 ha         1 988       0.118000
     31 H17         -0.2120    -1.2470     0.6300 ha         1 988       0.125000
     32 H24          2.2150    -0.8850     1.3100 ha         1 988       0.150000
     33 H26          5.1250    -1.0760    -1.9080 ha         1 988       0.150000
     34 H27          3.7010     0.4250    -3.2620 ha         1 988       0.128000
     35 H28          1.5510     1.2710    -2.3690 ha         1 988       0.133000
     36 H35         -2.1170    -1.6270     2.2560 hc         1 988       0.063200
     37 H35A        -3.3460    -0.4070     2.4610 hc         1 988       0.063200
     38 H39         -2.2070    -3.2180     0.3230 ha         1 988       0.123000
     39 H40         -3.6100    -4.1900    -1.4990 h4         1 988       0.020100
     40 H42         -6.3280    -1.0530    -1.2740 h4         1 988       0.020100
     41 H43         -5.0350     0.0470     0.5580 ha         1 988       0.123000
@<TRIPOS>BOND
     1     1     2 ar  
     2     1     6 ar  
     3     1    27 1   
     4     2     3 ar  
     5     2     7 ar  
     6     3     4 ar  
     7     3    10 ar  
     8     4     5 ar  
     9     5     6 ar  
    10     5    28 1   
    11     6    29 1   
    12     7     8 ar  
    13     7    30 1   
    14     8     9 ar  
    15     8    17 1   
    16     9    10 ar  
    17     9    31 1   
    18    10    11 1   
    19    11    12 ar  
    20    11    16 ar  
    21    12    13 ar  
    22    12    32 1   
    23    13    14 ar  
    24    13    24 1   
    25    14    15 ar  
    26    14    33 1   
    27    15    16 ar  
    28    15    34 1   
    29    16    35 1   
    30    17    18 1   
    31    17    36 1   
    32    17    37 1   
    33    18    19 ar  
    34    18    23 ar  
    35    19    20 ar  
    36    19    38 1   
    37    20    21 ar  
    38    20    39 1   
    39    21    22 ar  
    40    22    23 ar  
    41    22    40 1   
    42    23    41 1   
    43    24    25 1   
    44    24    26 1   
@<TRIPOS>SUBSTRUCTURE
     1 988         1 TEMP              0 ****  ****    0 ROOT
