@<TRIPOS>MOLECULE
989
   68    70     1     0     0
SMALL
bcc


@<TRIPOS>ATOM
      1 O22          3.6670     1.5710    -3.7930 o          1 989      -0.804800
      2 C21          2.4580     1.8080    -3.6450 c          1 989       0.884600
      3 O23          1.9120     2.7780    -3.1010 o          1 989      -0.804800
      4 C18          1.5170     0.7800    -4.2980 c          1 989       0.557100
      5 O20          1.5830     0.5480    -5.4940 o          1 989      -0.593100
      6 N17          0.6250     0.1380    -3.4910 n          1 989      -0.321200
      7 C19         -0.3090    -0.7850    -4.0400 ca         1 989       0.080600
      8 C28         -0.2900    -2.0880    -3.5520 ca         1 989      -0.175000
      9 C27         -1.1700    -3.0420    -4.0380 ca         1 989      -0.169000
     10 C26         -2.0550    -2.7000    -5.0500 ca         1 989      -0.180000
     11 C25         -2.0520    -1.4070    -5.5530 ca         1 989      -0.116000
     12 C24         -1.2080    -0.4200    -5.0450 ca         1 989      -0.100600
     13 C33         -1.3550     0.9960    -5.5840 c          1 989       0.936200
     14 O34         -1.3430     1.9160    -4.7470 o          1 989      -0.819800
     15 O35         -1.5300     1.0980    -6.8130 o          1 989      -0.819800
     16 C10          0.5470     0.3710    -2.0930 ca         1 989       0.161600
     17 C9          -0.5410     1.0250    -1.5880 ca         1 989      -0.129000
     18 C8          -0.6840     1.2020    -0.2040 ca         1 989      -0.084000
     19 C7           0.2580     0.7490     0.6840 ca         1 989      -0.146300
     20 C3           1.4070     0.0770     0.1820 ca         1 989      -0.015000
     21 C4           1.5450    -0.1380    -1.2200 ca         1 989      -0.042000
     22 C5           2.6640    -0.8640    -1.6960 ca         1 989      -0.044000
     23 C6           3.6120    -1.3430    -0.8350 ca         1 989      -0.173000
     24 C1           3.5000    -1.1020     0.5470 ca         1 989      -0.131000
     25 C2           2.4250    -0.4130     1.0380 ca         1 989      -0.161000
     26 C36          0.0170     0.9050     2.1590 c3         1 989      -0.029100
     27 C37         -0.4840    -0.4110     2.7920 c3         1 989       0.044700
     28 N41         -1.5710    -0.9950     2.0540 ns         1 989      -0.547900
     29 C61         -2.8040    -0.4610     2.0360 c          1 989       0.680100
     30 O66         -3.0840     0.5510     2.6640 o          1 989      -0.624100
     31 C62         -3.8090    -1.2190     1.2050 c3         1 989      -0.179100
     32 C40         -0.8470    -0.3450     4.2840 c          1 989       0.669100
     33 O43         -1.5410    -1.2140     4.7880 o          1 989      -0.621100
     34 N44         -0.3050     0.6550     4.9900 ns         1 989      -0.570900
     35 C45         -0.4360     0.7660     6.4280 c3         1 989       0.108000
     36 C46          0.5440    -0.1160     7.1930 c3         1 989      -0.103400
     37 C49          0.4070     0.0470     8.7010 c3         1 989      -0.072400
     38 C52          1.3670    -0.8410     9.4850 c3         1 989      -0.076400
     39 C55          1.2310    -0.6750    10.9920 c3         1 989      -0.087100
     40 H28          0.4220    -2.3590    -2.7820 ha         1 989       0.110000
     41 H27         -1.1510    -4.0480    -3.6390 ha         1 989       0.088000
     42 H26         -2.7400    -3.4360    -5.4500 ha         1 989       0.089000
     43 H25         -2.7360    -1.1480    -6.3510 ha         1 989       0.130000
     44 H9          -1.2820     1.4120    -2.2750 ha         1 989       0.193000
     45 H8          -1.5640     1.7120     0.1690 ha         1 989       0.119000
     46 H5           2.7670    -1.0570    -2.7540 ha         1 989       0.165000
     47 H6           4.4570    -1.9010    -1.2180 ha         1 989       0.115000
     48 H1           4.2630    -1.4660     1.2220 ha         1 989       0.099000
     49 H2           2.3640    -0.2340     2.1040 ha         1 989       0.097000
     50 H361        -0.7200     1.6920     2.3190 hc         1 989       0.048700
     51 H362         0.9350     1.2250     2.6560 hc         1 989       0.048700
     52 H37          0.3310    -1.1390     2.7400 h1         1 989       0.069700
     53 H41         -1.3850    -1.8180     1.5070 hn         1 989       0.327500
     54 H621        -4.6920    -0.6100     1.0290 hc         1 989       0.059367
     55 H622        -3.3890    -1.5220     0.2460 hc         1 989       0.059367
     56 H623        -4.1140    -2.1260     1.7290 hc         1 989       0.059367
     57 H44          0.2760     1.3340     4.5300 hn         1 989       0.322500
     58 H451        -1.4610     0.5240     6.7140 h1         1 989       0.046700
     59 H452        -0.2750     1.8140     6.6860 h1         1 989       0.046700
     60 H461         1.5650     0.1310     6.8850 hc         1 989       0.048700
     61 H462         0.3760    -1.1610     6.9190 hc         1 989       0.048700
     62 H491        -0.6220    -0.1810     9.0020 hc         1 989       0.034700
     63 H492         0.5790     1.0940     8.9740 hc         1 989       0.034700
     64 H521         2.3940    -0.6160     9.1830 hc         1 989       0.038700
     65 H522         1.1920    -1.8870     9.2150 hc         1 989       0.038700
     66 H551         1.9250    -1.3220    11.5290 hc         1 989       0.026700
     67 H552         1.4370     0.3530    11.2970 hc         1 989       0.026700
     68 H553         0.2220    -0.9210    11.3290 hc         1 989       0.026700
@<TRIPOS>BOND
     1     1     2 1   
     2     2     3 1   
     3     2     4 1   
     4     4     5 2   
     5     4     6 1   
     6     6     7 1   
     7     6    16 1   
     8     7     8 ar  
     9     7    12 ar  
    10     8     9 ar  
    11     8    40 1   
    12     9    10 ar  
    13     9    41 1   
    14    10    11 ar  
    15    10    42 1   
    16    11    12 ar  
    17    11    43 1   
    18    12    13 1   
    19    13    14 1   
    20    13    15 1   
    21    16    17 ar  
    22    16    21 ar  
    23    17    18 ar  
    24    17    44 1   
    25    18    19 ar  
    26    18    45 1   
    27    19    20 ar  
    28    19    26 1   
    29    20    21 ar  
    30    20    25 ar  
    31    21    22 ar  
    32    22    23 ar  
    33    22    46 1   
    34    23    24 ar  
    35    23    47 1   
    36    24    25 ar  
    37    24    48 1   
    38    25    49 1   
    39    26    27 1   
    40    26    50 1   
    41    26    51 1   
    42    27    28 1   
    43    27    32 1   
    44    27    52 1   
    45    28    29 1   
    46    28    53 1   
    47    29    30 2   
    48    29    31 1   
    49    31    54 1   
    50    31    55 1   
    51    31    56 1   
    52    32    33 2   
    53    32    34 1   
    54    34    35 1   
    55    34    57 1   
    56    35    36 1   
    57    35    58 1   
    58    35    59 1   
    59    36    37 1   
    60    36    60 1   
    61    36    61 1   
    62    37    38 1   
    63    37    62 1   
    64    37    63 1   
    65    38    39 1   
    66    38    64 1   
    67    38    65 1   
    68    39    66 1   
    69    39    67 1   
    70    39    68 1   
@<TRIPOS>SUBSTRUCTURE
     1 989         1 TEMP              0 ****  ****    0 ROOT
