@<TRIPOS>MOLECULE
989
   68    70     1     0     0
SMALL
No Charge or Current Charge


@<TRIPOS>ATOM
      1 O22          3.7520     1.7230    -3.6890 o          1 989      -0.699500
      2 C21          2.5290     1.8280    -3.6140 c          1 989       0.674000
      3 O23          1.9750     2.7810    -3.0700 o          1 989      -0.699500
      4 C18          1.6140     0.6980    -4.3370 c          1 989       0.490100
      5 O20          1.8590     0.3240    -5.4910 o          1 989      -0.593100
      6 N17          0.5420     0.1320    -3.5900 n          1 989      -0.069000
      7 C19         -0.5320    -0.6330    -4.2010 ca         1 989      -0.012000
      8 C28         -0.9590    -1.8170    -3.5510 ca         1 989      -0.157000
      9 C27         -1.9600    -2.6290    -4.1010 ca         1 989      -0.151000
     10 C26         -2.5630    -2.2690    -5.3100 ca         1 989      -0.162000
     11 C25         -2.1790    -1.0870    -5.9580 ca         1 989      -0.098000
     12 C24         -1.1760    -0.2490    -5.4170 ca         1 989      -0.100600
     13 C33         -0.9120     1.0750    -6.1070 c          1 989       0.725600
     14 O34         -0.8800     2.0890    -5.4210 o          1 989      -0.714500
     15 O35         -0.8790     1.0960    -7.3310 o          1 989      -0.714500
     16 C10          0.4660     0.2570    -2.1530 ca         1 989       0.069000
     17 C9          -0.7220     0.7760    -1.6110 ca         1 989      -0.111000
     18 C8          -0.8610     0.9650    -0.2330 ca         1 989      -0.066000
     19 C7           0.1800     0.6250     0.6500 ca         1 989      -0.146300
     20 C3           1.3810     0.0720     0.1270 ca         1 989      -0.015000
     21 C4           1.5180    -0.1320    -1.2760 ca         1 989      -0.042000
     22 C5           2.6820    -0.7770    -1.7650 ca         1 989      -0.026000
     23 C6           3.7180    -1.1480    -0.8970 ca         1 989      -0.155000
     24 C1           3.6070    -0.8970     0.4740 ca         1 989      -0.113000
     25 C2           2.4470    -0.2990     0.9830 ca         1 989      -0.143000
     26 C36         -0.0630     0.8310     2.1520 c3         1 989      -0.029100
     27 C37         -0.3820    -0.4940     2.9090 c3         1 989       0.044700
     28 N41         -1.3850    -1.3350     2.2070 ns         1 989      -0.480900
     29 C61         -2.6830    -0.9680     1.9250 c          1 989       0.613100
     30 O66         -3.1730     0.0930     2.2850 o          1 989      -0.624100
     31 C62         -3.4690    -1.9960     1.1220 c3         1 989      -0.179100
     32 C40         -0.7350    -0.3020     4.4220 c          1 989       0.602100
     33 O43         -1.6220    -0.9300     4.9920 o          1 989      -0.621100
     34 N44          0.0340     0.6240     5.1020 ns         1 989      -0.503900
     35 C45         -0.0980     0.9380     6.5260 c3         1 989       0.108000
     36 C46          0.5940    -0.1130     7.4180 c3         1 989      -0.103400
     37 C49          0.4880     0.2150     8.9240 c3         1 989      -0.072400
     38 C52          1.1800    -0.8340     9.8210 c3         1 989      -0.076400
     39 C55          1.0750    -0.5070    11.3230 c3         1 989      -0.087100
     40 H28         -0.4890    -2.1330    -2.6220 ha         1 989       0.092000
     41 H27         -2.2620    -3.5410    -3.5920 ha         1 989       0.070000
     42 H26         -3.3410    -2.8970    -5.7390 ha         1 989       0.071000
     43 H25         -2.6840    -0.8010    -6.8790 ha         1 989       0.112000
     44 H9          -1.5390     1.0630    -2.2700 ha         1 989       0.175000
     45 H8          -1.7900     1.3810     0.1500 ha         1 989       0.101000
     46 H5           2.7970    -1.0180    -2.8180 ha         1 989       0.147000
     47 H6           4.6080    -1.6350    -1.2900 ha         1 989       0.097000
     48 H1           4.4130    -1.1810     1.1470 ha         1 989       0.081000
     49 H2           2.3960    -0.1370     2.0540 ha         1 989       0.079000
     50 H361        -0.8950     1.5300     2.3040 hc         1 989       0.048700
     51 H362         0.8030     1.3280     2.6030 hc         1 989       0.048700
     52 H37          0.5450    -1.0800     2.9200 h1         1 989       0.069700
     53 H41         -1.0930    -2.2410     1.8620 hn         1 989       0.327500
     54 H621        -4.4990    -1.6790     0.9230 hc         1 989       0.059367
     55 H622        -2.9270    -2.2100     0.1940 hc         1 989       0.059367
     56 H623        -3.4340    -2.9600     1.6410 hc         1 989       0.059367
     57 H44          0.7540     1.0990     4.5720 hn         1 989       0.322500
     58 H451        -1.1640     1.0010     6.7840 h1         1 989       0.046700
     59 H452         0.3520     1.9230     6.7070 h1         1 989       0.046700
     60 H461         1.6520    -0.1810     7.1370 hc         1 989       0.048700
     61 H462         0.1470    -1.0970     7.2320 hc         1 989       0.048700
     62 H491        -0.5710     0.2860     9.2030 hc         1 989       0.034700
     63 H492         0.9350     1.2000     9.1100 hc         1 989       0.034700
     64 H521         2.2400    -0.9060     9.5450 hc         1 989       0.038700
     65 H522         0.7350    -1.8200     9.6380 hc         1 989       0.038700
     66 H551         1.5790    -1.2780    11.9180 hc         1 989       0.026700
     67 H552         1.5440     0.4590    11.5440 hc         1 989       0.026700
     68 H553         0.0250    -0.4630    11.6380 hc         1 989       0.026700
@<TRIPOS>BOND
     1     1     2 1   
     2     2     3 1   
     3     2     4 1   
     4     4     5 2   
     5     4     6 1   
     6     6     7 1   
     7     6    16 1   
     8     7     8 ar  
     9     7    12 ar  
    10     8     9 ar  
    11     8    40 1   
    12     9    10 ar  
    13     9    41 1   
    14    10    11 ar  
    15    10    42 1   
    16    11    12 ar  
    17    11    43 1   
    18    12    13 1   
    19    13    14 1   
    20    13    15 1   
    21    16    17 ar  
    22    16    21 ar  
    23    17    18 ar  
    24    17    44 1   
    25    18    19 ar  
    26    18    45 1   
    27    19    20 ar  
    28    19    26 1   
    29    20    21 ar  
    30    20    25 ar  
    31    21    22 ar  
    32    22    23 ar  
    33    22    46 1   
    34    23    24 ar  
    35    23    47 1   
    36    24    25 ar  
    37    24    48 1   
    38    25    49 1   
    39    26    27 1   
    40    26    50 1   
    41    26    51 1   
    42    27    28 1   
    43    27    32 1   
    44    27    52 1   
    45    28    29 1   
    46    28    53 1   
    47    29    30 2   
    48    29    31 1   
    49    31    54 1   
    50    31    55 1   
    51    31    56 1   
    52    32    33 2   
    53    32    34 1   
    54    34    35 1   
    55    34    57 1   
    56    35    36 1   
    57    35    58 1   
    58    35    59 1   
    59    36    37 1   
    60    36    60 1   
    61    36    61 1   
    62    37    38 1   
    63    37    62 1   
    64    37    63 1   
    65    38    39 1   
    66    38    64 1   
    67    38    65 1   
    68    39    66 1   
    69    39    67 1   
    70    39    68 1   
@<TRIPOS>SUBSTRUCTURE
     1 989         1 TEMP              0 ****  ****    0 ROOT
