@<TRIPOS>MOLECULE
98A
   46    50     1     0     0
SMALL
No Charge or Current Charge


@<TRIPOS>ATOM
      1 C10         10.7760     6.3220    -7.8190 cc         1 98A       0.449900
      2 C13         13.9830     4.5300    -8.4470 c6         1 98A       0.221300
      3 C15         15.0660     2.4390    -7.4290 ca         1 98A       0.384900
      4 C17         16.8830     1.4970    -8.4800 ca         1 98A       0.152900
      5 C21         12.9240     3.4240    -6.4190 c6         1 98A       0.221300
      6 C22         11.6250     4.1270    -6.9390 c6         1 98A       0.210300
      7 C24          8.6260     6.6190    -8.6180 cd         1 98A       0.132900
      8 C26         11.8740     8.6000    -7.3680 cd         1 98A      -0.196000
      9 C01         14.7050    13.2590    -6.1700 c3         1 98A       0.077900
     10 C04         11.5380    12.4550    -7.4830 cd         1 98A       0.251900
     11 C05         12.0260    11.1470    -7.2910 cd         1 98A      -0.132800
     12 C06         11.3590     9.9090    -7.5760 cd         1 98A      -0.047200
     13 C07         10.0850     9.8570    -8.0980 cc         1 98A      -0.158100
     14 C09         10.8930     7.7300    -7.7820 cc         1 98A      -0.252000
     15 C12         13.2340     5.8040    -7.9290 c6         1 98A       0.210300
     16 C18         17.0110     0.5790    -7.4260 ca         1 98A      -0.286000
     17 C19         16.0870     0.6680    -6.3740 ca         1 98A       0.152900
     18 C27         13.2840    11.2250    -6.7720 cc         1 98A      -0.159000
     19 N02         13.4920    12.6000    -6.6750 na         1 98A       0.118800
     20 N03         12.4210    13.3650    -7.1120 nc         1 98A      -0.524800
     21 N08          9.8480     8.4950    -8.1930 na         1 98A       0.273900
     22 N11         11.8440     5.5350    -7.4220 nh         1 98A      -0.775300
     23 N14         14.0410     3.4200    -7.4300 nh         1 98A      -0.788300
     24 N16         15.9110     2.4280    -8.4830 nb         1 98A      -0.246500
     25 N20         15.1130     1.5970    -6.3730 nb         1 98A      -0.246500
     26 N23          9.6550     5.7430    -8.2190 nd         1 98A      -0.316000
     27 N25          8.6640     7.9680    -8.6300 nc         1 98A      -0.299800
     28 H1          14.9960     4.8440    -8.7390 h1         1 98A       0.068950
     29 H2          13.4810     4.1740    -9.3580 h1         1 98A       0.068950
     30 H3          17.5640     1.4870    -9.3290 h4         1 98A       0.021600
     31 H4          12.6490     2.3970    -6.1390 h1         1 98A       0.068950
     32 H5          13.2540     3.9320    -5.5010 h1         1 98A       0.068950
     33 H6          10.8810     4.1200    -6.1300 h1         1 98A       0.068950
     34 H7          11.2110     3.5140    -7.7540 h1         1 98A       0.068950
     35 H8           7.7130     6.1390    -8.9480 h5         1 98A       0.053100
     36 H9          12.8430     8.3480    -6.9490 ha         1 98A       0.197000
     37 H10         14.4520    13.8780    -5.3010 h1         1 98A       0.055367
     38 H11         15.4420    12.5030    -5.8720 h1         1 98A       0.055367
     39 H12         15.1340    13.8920    -6.9560 h1         1 98A       0.055367
     40 H13         10.5790    12.7680    -7.8770 h4         1 98A       0.037100
     41 H14          9.3650    10.6120    -8.3830 h4         1 98A       0.236000
     42 H15         13.8380     6.2460    -7.1230 h1         1 98A       0.068950
     43 H16         13.2100     6.5380    -8.7480 h1         1 98A       0.068950
     44 H17         17.7960    -0.1720    -7.4250 ha         1 98A       0.135000
     45 H18         16.1250    -0.0110    -5.5230 h4         1 98A       0.021600
     46 H19         14.0100    10.4790    -6.4780 h4         1 98A       0.150000
@<TRIPOS>BOND
     1     1    14 1   
     2     1    22 1   
     3     1    26 2   
     4     2    15 1   
     5     2    23 1   
     6     2    28 1   
     7     2    29 1   
     8     3    23 1   
     9     3    24 ar  
    10     3    25 ar  
    11     4    16 ar  
    12     4    24 ar  
    13     4    30 1   
    14     5     6 1   
    15     5    23 1   
    16     5    31 1   
    17     5    32 1   
    18     6    22 1   
    19     6    33 1   
    20     6    34 1   
    21     7    26 1   
    22     7    27 2   
    23     7    35 1   
    24     8    12 1   
    25     8    14 2   
    26     8    36 1   
    27     9    19 1   
    28     9    37 1   
    29     9    38 1   
    30     9    39 1   
    31    10    11 1   
    32    10    20 2   
    33    10    40 1   
    34    11    12 1   
    35    11    18 2   
    36    12    13 2   
    37    13    21 1   
    38    13    41 1   
    39    14    21 1   
    40    15    22 1   
    41    15    42 1   
    42    15    43 1   
    43    16    17 ar  
    44    16    44 1   
    45    17    25 ar  
    46    17    45 1   
    47    18    19 1   
    48    18    46 1   
    49    19    20 1   
    50    21    27 1   
@<TRIPOS>SUBSTRUCTURE
     1 98A         1 TEMP              0 ****  ****    0 ROOT
