@<TRIPOS>MOLECULE
98A
   46    50     1     0     0
SMALL
abcg2


@<TRIPOS>ATOM
      1 C10         10.7680     6.2170    -7.7850 cc         1 98A       0.449900
      2 C13         14.0240     4.6120    -8.4050 c6         1 98A       0.221300
      3 C15         14.9720     2.5680    -7.4200 ca         1 98A       0.384900
      4 C17         17.1010     1.9590    -7.9630 ca         1 98A       0.152900
      5 C21         12.6620     3.2010    -6.8850 c6         1 98A       0.221300
      6 C22         11.5300     3.9110    -7.6050 c6         1 98A       0.210300
      7 C24          8.5080     6.5730    -8.0570 cd         1 98A       0.132900
      8 C26         11.9700     8.5500    -7.4630 cd         1 98A      -0.196000
      9 C01         14.9020    13.2920    -6.5150 c3         1 98A       0.077900
     10 C04         11.6180    12.4180    -7.3980 cd         1 98A       0.251900
     11 C05         12.1200    11.1010    -7.2890 cd         1 98A      -0.132800
     12 C06         11.4140     9.8480    -7.4910 cd         1 98A      -0.047200
     13 C07         10.0500     9.7110    -7.7440 cc         1 98A      -0.158100
     14 C09         10.9450     7.6360    -7.7050 cc         1 98A      -0.252000
     15 C12         13.1980     5.7420    -7.8110 c6         1 98A       0.210300
     16 C18         17.0460     0.8850    -7.0840 ca         1 98A      -0.286000
     17 C19         15.8520     0.7310    -6.3940 ca         1 98A       0.152900
     18 C27         13.4520    11.2850    -6.9390 cc         1 98A      -0.159000
     19 N02         13.6670    12.6160    -6.8590 na         1 98A       0.118800
     20 N03         12.5570    13.3260    -7.1380 nc         1 98A      -0.524800
     21 N08          9.7750     8.3910    -7.8650 na         1 98A       0.273900
     22 N11         11.7930     5.3490    -7.6940 nh         1 98A      -0.775300
     23 N14         13.9270     3.4160    -7.5800 nh         1 98A      -0.788300
     24 N16         16.0870     2.7970    -8.1470 nb         1 98A      -0.246500
     25 N20         14.8180     1.5530    -6.5420 nb         1 98A      -0.246500
     26 N23          9.5380     5.7150    -7.9390 nd         1 98A      -0.316000
     27 N25          8.5280     7.8780    -8.0500 nc         1 98A      -0.299800
     28 H1          15.0620     4.9300    -8.4530 h1         1 98A       0.068950
     29 H2          13.6940     4.4070    -9.4290 h1         1 98A       0.068950
     30 H3          17.9950     2.1530    -8.5480 h4         1 98A       0.021600
     31 H4          12.4410     2.1360    -6.8560 h1         1 98A       0.068950
     32 H5          12.7260     3.5510    -5.8490 h1         1 98A       0.068950
     33 H6          10.6070     3.7590    -7.0530 h1         1 98A       0.068950
     34 H7          11.3880     3.4870    -8.6050 h1         1 98A       0.068950
     35 H8           7.5250     6.1330    -8.1880 h5         1 98A       0.053100
     36 H9          13.0040     8.3220    -7.2760 ha         1 98A       0.197000
     37 H10         14.7600    13.8930    -5.6170 h1         1 98A       0.055367
     38 H11         15.6670    12.5420    -6.3320 h1         1 98A       0.055367
     39 H12         15.2150    13.9370    -7.3370 h1         1 98A       0.055367
     40 H13         10.6190    12.7330    -7.6570 h4         1 98A       0.037100
     41 H14          9.2650    10.4430    -7.8300 h4         1 98A       0.236000
     42 H15         13.6040     6.0220    -6.8350 h1         1 98A       0.068950
     43 H16         13.2780     6.5980    -8.4760 h1         1 98A       0.068950
     44 H17         17.8790     0.2110    -6.9490 ha         1 98A       0.135000
     45 H18         15.7190    -0.0850    -5.6900 h4         1 98A       0.021600
     46 H19         14.2400    10.5770    -6.7430 h4         1 98A       0.150000
@<TRIPOS>BOND
     1     1    14 1   
     2     1    22 1   
     3     1    26 2   
     4     2    15 1   
     5     2    23 1   
     6     2    28 1   
     7     2    29 1   
     8     3    23 1   
     9     3    24 ar  
    10     3    25 ar  
    11     4    16 ar  
    12     4    24 ar  
    13     4    30 1   
    14     5     6 1   
    15     5    23 1   
    16     5    31 1   
    17     5    32 1   
    18     6    22 1   
    19     6    33 1   
    20     6    34 1   
    21     7    26 1   
    22     7    27 2   
    23     7    35 1   
    24     8    12 1   
    25     8    14 2   
    26     8    36 1   
    27     9    19 1   
    28     9    37 1   
    29     9    38 1   
    30     9    39 1   
    31    10    11 1   
    32    10    20 2   
    33    10    40 1   
    34    11    12 1   
    35    11    18 2   
    36    12    13 2   
    37    13    21 1   
    38    13    41 1   
    39    14    21 1   
    40    15    22 1   
    41    15    42 1   
    42    15    43 1   
    43    16    17 ar  
    44    16    44 1   
    45    17    25 ar  
    46    17    45 1   
    47    18    19 1   
    48    18    46 1   
    49    19    20 1   
    50    21    27 1   
@<TRIPOS>SUBSTRUCTURE
     1 98A         1 TEMP              0 ****  ****    0 ROOT
