@<TRIPOS>MOLECULE
98B
   20    20     1     0     0
SMALL
No Charge or Current Charge


@<TRIPOS>ATOM
      1 N            2.2920    -0.4880     1.1060 n8         1 98B      -0.996200
      2 C            1.6940     0.4330     0.1290 c3         1 98B       0.208800
      3 C7           2.4060     0.3100    -1.2340 c3         1 98B      -0.086100
      4 C1           0.1870     0.1950     0.0430 ca         1 98B      -0.121300
      5 C2          -0.3380    -0.9820    -0.5370 ca         1 98B      -0.106000
      6 C3          -1.7270    -1.1830    -0.6060 ca         1 98B      -0.108000
      7 C4          -2.6060    -0.2140    -0.0960 ca         1 98B      -0.109000
      8 C5          -2.0940     0.9570     0.4870 ca         1 98B      -0.108000
      9 C6          -0.7050     1.1600     0.5570 ca         1 98B      -0.106000
     10 H1           1.7940    -0.3750     1.9960 hn         1 98B       0.396500
     11 H2           2.0550    -1.4460     0.8270 hn         1 98B       0.396500
     12 H4           1.8640     1.4580     0.4920 h1         1 98B       0.063700
     13 H5           2.3420    -0.7100    -1.6330 hc         1 98B       0.040033
     14 H6           1.9510     0.9920    -1.9620 hc         1 98B       0.040033
     15 H7           3.4660     0.5740    -1.1410 hc         1 98B       0.040033
     16 H8           0.3280    -1.7450    -0.9330 ha         1 98B       0.108500
     17 H9          -2.1220    -2.0920    -1.0550 ha         1 98B       0.112500
     18 H10         -3.6810    -0.3710    -0.1500 ha         1 98B       0.113000
     19 H11         -2.7740     1.7070     0.8840 ha         1 98B       0.112500
     20 H12         -0.3230     2.0710     1.0110 ha         1 98B       0.108500
@<TRIPOS>BOND
     1     1     2 1   
     2     1    10 1   
     3     1    11 1   
     4     2     3 1   
     5     2     4 1   
     6     2    12 1   
     7     3    13 1   
     8     3    14 1   
     9     3    15 1   
    10     4     5 ar  
    11     4     9 ar  
    12     5     6 ar  
    13     5    16 1   
    14     6     7 ar  
    15     6    17 1   
    16     7     8 ar  
    17     7    18 1   
    18     8     9 ar  
    19     8    19 1   
    20     9    20 1   
@<TRIPOS>SUBSTRUCTURE
     1 98B         1 TEMP              0 ****  ****    0 ROOT
