@<TRIPOS>MOLECULE
98B
   20    20     1     0     0
SMALL
abcg2


@<TRIPOS>ATOM
      1 N            2.3800    -0.7020     0.9500 n8         1 98B      -0.996200
      2 C            1.6770     0.3460     0.2260 c3         1 98B       0.208800
      3 C7           2.3020     0.5130    -1.1550 c3         1 98B      -0.086100
      4 C1           0.1750     0.1530     0.1090 ca         1 98B      -0.121300
      5 C2          -0.3730    -1.0760    -0.2540 ca         1 98B      -0.106000
      6 C3          -1.7460    -1.2350    -0.3770 ca         1 98B      -0.108000
      7 C4          -2.5990    -0.1650    -0.1330 ca         1 98B      -0.109000
      8 C5          -2.0660     1.0630     0.2320 ca         1 98B      -0.108000
      9 C6          -0.6910     1.2160     0.3520 ca         1 98B      -0.106000
     10 H1           1.9020    -0.9070     1.8180 hn         1 98B       0.396500
     11 H2           2.3770    -1.5630     0.4160 hn         1 98B       0.396500
     12 H4           1.8380     1.2790     0.7740 h1         1 98B       0.063700
     13 H5           2.1770    -0.3910    -1.7570 hc         1 98B       0.040033
     14 H6           1.8390     1.3370    -1.6970 hc         1 98B       0.040033
     15 H7           3.3700     0.7170    -1.0700 hc         1 98B       0.040033
     16 H8           0.2740    -1.9260    -0.4410 ha         1 98B       0.108500
     17 H9          -2.1520    -2.1970    -0.6610 ha         1 98B       0.112500
     18 H10         -3.6710    -0.2910    -0.2230 ha         1 98B       0.113000
     19 H11         -2.7210     1.9020     0.4310 ha         1 98B       0.112500
     20 H12         -0.2840     2.1780     0.6460 ha         1 98B       0.108500
@<TRIPOS>BOND
     1     1     2 1   
     2     1    10 1   
     3     1    11 1   
     4     2     3 1   
     5     2     4 1   
     6     2    12 1   
     7     3    13 1   
     8     3    14 1   
     9     3    15 1   
    10     4     5 ar  
    11     4     9 ar  
    12     5     6 ar  
    13     5    16 1   
    14     6     7 ar  
    15     6    17 1   
    16     7     8 ar  
    17     7    18 1   
    18     8     9 ar  
    19     8    19 1   
    20     9    20 1   
@<TRIPOS>SUBSTRUCTURE
     1 98B         1 TEMP              0 ****  ****    0 ROOT
