@<TRIPOS>MOLECULE
98C
   45    46     1     0     0
SMALL
No Charge or Current Charge


@<TRIPOS>ATOM
      1 O1          -7.3470    14.5260    -5.9490 o          1 98C      -0.585100
      2 C1          -7.9190    14.3760    -4.8760 c          1 98C       0.602100
      3 N1          -7.2440    13.9920    -3.7380 ns         1 98C      -0.511900
      4 C2          -5.8170    13.7100    -3.6660 c3         1 98C       0.153300
      5 C3          -5.4600    13.1490    -2.2980 ca         1 98C      -0.151300
      6 C4          -5.1560    11.7830    -2.1450 ca         1 98C      -0.059000
      7 C5          -4.8480    11.2680    -0.8740 ca         1 98C      -0.178000
      8 C6          -4.8380    12.1060     0.2520 ca         1 98C       0.138100
      9 O2          -4.5290    11.5420     1.4730 os         1 98C      -0.341100
     10 C7          -4.4360    12.3230     2.6780 c3         1 98C       0.147900
     11 C8          -5.1410    13.4760     0.1010 ca         1 98C      -0.178000
     12 C9          -5.4520    13.9920    -1.1700 ca         1 98C      -0.059000
     13 C10         -9.4500    14.6110    -4.6750 c3         1 98C       0.084800
     14 N2         -10.3470    13.4420    -4.9830 n7         1 98C      -0.840400
     15 C11        -10.0330    12.1520    -4.3240 c3         1 98C       0.207100
     16 C12         -9.9260    12.2800    -2.8050 ca         1 98C      -0.165300
     17 C13        -10.9440    12.8970    -2.0490 ca         1 98C      -0.067500
     18 C14        -10.8110    13.0250    -0.6560 ca         1 98C      -0.172000
     19 C15         -9.6690    12.5390    -0.0000 ca         1 98C       0.139100
     20 O3          -9.5850    12.7060     1.3670 os         1 98C      -0.342100
     21 C16         -8.4270    12.2980     2.1160 c3         1 98C       0.147900
     22 C17         -8.6590    11.9020    -0.7500 ca         1 98C      -0.172000
     23 C18         -8.7930    11.7680    -2.1420 ca         1 98C      -0.067500
     24 H1          -7.8010    13.8560    -2.9030 hn         1 98C       0.308500
     25 H2          -5.5500    12.9920    -4.4530 h1         1 98C       0.063200
     26 H3          -5.2580    14.6390    -3.8460 h1         1 98C       0.063200
     27 H4          -5.1630    11.1190    -3.0070 ha         1 98C       0.118000
     28 H5          -4.6160    10.2120    -0.7610 ha         1 98C       0.123000
     29 H6          -4.1680    11.6810     3.5260 h1         1 98C       0.040367
     30 H7          -3.6650    13.0980     2.5810 h1         1 98C       0.040367
     31 H8          -5.3940    12.8050     2.9070 h1         1 98C       0.040367
     32 H9          -5.1450    14.1510     0.9510 ha         1 98C       0.123000
     33 H10         -5.6900    15.0480    -1.2780 ha         1 98C       0.118000
     34 H11         -9.7270    15.4670    -5.3040 h1         1 98C       0.044700
     35 H12         -9.5940    14.9300    -3.6350 h1         1 98C       0.044700
     36 H13        -11.3070    13.7020    -4.7280 hn         1 98C       0.412000
     37 H15        -10.8060    11.4080    -4.5600 h1         1 98C       0.064200
     38 H16         -9.0860    11.7520    -4.7160 h1         1 98C       0.064200
     39 H17        -11.8350    13.2830    -2.5390 ha         1 98C       0.114500
     40 H18        -11.5950    13.5100    -0.0800 ha         1 98C       0.125500
     41 H19         -8.5580    12.5350     3.1790 h1         1 98C       0.040367
     42 H20         -8.2640    11.2160     2.0260 h1         1 98C       0.040367
     43 H21         -7.5300    12.8200     1.7590 h1         1 98C       0.040367
     44 H22         -7.7660    11.5060    -0.2750 ha         1 98C       0.125500
     45 H23         -8.0060    11.2730    -2.7070 ha         1 98C       0.114500
@<TRIPOS>BOND
     1     1     2 2   
     2     2     3 1   
     3     2    13 1   
     4     3     4 1   
     5     3    24 1   
     6     4     5 1   
     7     4    25 1   
     8     4    26 1   
     9     5     6 ar  
    10     5    12 ar  
    11     6     7 ar  
    12     6    27 1   
    13     7     8 ar  
    14     7    28 1   
    15     8     9 1   
    16     8    11 ar  
    17     9    10 1   
    18    10    29 1   
    19    10    30 1   
    20    10    31 1   
    21    11    12 ar  
    22    11    32 1   
    23    12    33 1   
    24    13    14 1   
    25    13    34 1   
    26    13    35 1   
    27    14    15 1   
    28    14    36 1   
    29    15    16 1   
    30    15    37 1   
    31    15    38 1   
    32    16    17 ar  
    33    16    23 ar  
    34    17    18 ar  
    35    17    39 1   
    36    18    19 ar  
    37    18    40 1   
    38    19    20 1   
    39    19    22 ar  
    40    20    21 1   
    41    21    41 1   
    42    21    42 1   
    43    21    43 1   
    44    22    23 ar  
    45    22    44 1   
    46    23    45 1   
@<TRIPOS>SUBSTRUCTURE
     1 98C         1 TEMP              0 ****  ****    0 ROOT
