@<TRIPOS>MOLECULE
98C
   45    46     1     0     0
SMALL
abcg2


@<TRIPOS>ATOM
      1 O1          -7.3580    13.0130    -5.4050 o          1 98C      -0.585100
      2 C1          -7.8020    13.8250    -4.6090 c          1 98C       0.602100
      3 N1          -7.0430    14.5000    -3.7270 ns         1 98C      -0.511900
      4 C2          -5.6200    14.3080    -3.5390 c3         1 98C       0.153300
      5 C3          -5.3170    13.5190    -2.2920 ca         1 98C      -0.151300
      6 C4          -5.2710    12.1250    -2.3080 ca         1 98C      -0.059000
      7 C5          -5.0470    11.4010    -1.1510 ca         1 98C      -0.178000
      8 C6          -4.8660    12.0610     0.0680 ca         1 98C       0.138100
      9 O2          -4.6590    11.2810     1.1460 os         1 98C      -0.341100
     10 C7          -4.4870    11.9020     2.4030 c3         1 98C       0.147900
     11 C8          -4.9050    13.4520     0.0990 ca         1 98C      -0.178000
     12 C9          -5.1280    14.1610    -1.0760 ca         1 98C      -0.059000
     13 C10         -9.2740    14.2120    -4.5550 c3         1 98C       0.084800
     14 N2         -10.1480    13.1550    -5.0030 n7         1 98C      -0.840400
     15 C11        -10.1300    11.9340    -4.2030 c3         1 98C       0.207100
     16 C12        -10.0430    12.1300    -2.7090 ca         1 98C      -0.165300
     17 C13        -11.0990    12.6770    -1.9780 ca         1 98C      -0.067500
     18 C14        -10.9870    12.9100    -0.6210 ca         1 98C      -0.172000
     19 C15         -9.8000    12.6040     0.0520 ca         1 98C       0.139100
     20 O3          -9.7730    12.8710     1.3730 os         1 98C      -0.342100
     21 C16         -8.5920    12.5830     2.0920 c3         1 98C       0.147900
     22 C17         -8.7380    12.0560    -0.6600 ca         1 98C      -0.172000
     23 C18         -8.8750    11.8290    -2.0250 ca         1 98C      -0.067500
     24 H1          -7.5080    15.0920    -3.0560 hn         1 98C       0.308500
     25 H2          -5.2240    13.8070    -4.4210 h1         1 98C       0.063200
     26 H3          -5.1440    15.2880    -3.4830 h1         1 98C       0.063200
     27 H4          -5.4130    11.5940    -3.2420 ha         1 98C       0.118000
     28 H5          -5.0110    10.3190    -1.1820 ha         1 98C       0.123000
     29 H6          -4.3460    11.1020     3.1260 h1         1 98C       0.040367
     30 H7          -3.6080    12.5520     2.4230 h1         1 98C       0.040367
     31 H8          -5.3640    12.4870     2.6940 h1         1 98C       0.040367
     32 H9          -4.7620    14.0000     1.0200 ha         1 98C       0.123000
     33 H10         -5.1530    15.2440    -1.0320 ha         1 98C       0.118000
     34 H11         -9.4050    15.0650    -5.2290 h1         1 98C       0.044700
     35 H12         -9.5080    14.5850    -3.5480 h1         1 98C       0.044700
     36 H13        -11.0900    13.5210    -5.0460 hn         1 98C       0.412000
     37 H15        -11.0330    11.3760    -4.4600 h1         1 98C       0.064200
     38 H16         -9.2870    11.3150    -4.5200 h1         1 98C       0.064200
     39 H17        -12.0270    12.9290    -2.4790 ha         1 98C       0.114500
     40 H18        -11.8170    13.3320    -0.0670 ha         1 98C       0.125500
     41 H19         -8.7800    12.8670     3.1240 h1         1 98C       0.040367
     42 H20         -8.3420    11.5190     2.0610 h1         1 98C       0.040367
     43 H21         -7.7360    13.1530     1.7210 h1         1 98C       0.040367
     44 H22         -7.7990    11.8060    -0.1840 ha         1 98C       0.125500
     45 H23         -8.0350    11.4070    -2.5650 ha         1 98C       0.114500
@<TRIPOS>BOND
     1     1     2 2   
     2     2     3 1   
     3     2    13 1   
     4     3     4 1   
     5     3    24 1   
     6     4     5 1   
     7     4    25 1   
     8     4    26 1   
     9     5     6 ar  
    10     5    12 ar  
    11     6     7 ar  
    12     6    27 1   
    13     7     8 ar  
    14     7    28 1   
    15     8     9 1   
    16     8    11 ar  
    17     9    10 1   
    18    10    29 1   
    19    10    30 1   
    20    10    31 1   
    21    11    12 ar  
    22    11    32 1   
    23    12    33 1   
    24    13    14 1   
    25    13    34 1   
    26    13    35 1   
    27    14    15 1   
    28    14    36 1   
    29    15    16 1   
    30    15    37 1   
    31    15    38 1   
    32    16    17 ar  
    33    16    23 ar  
    34    17    18 ar  
    35    17    39 1   
    36    18    19 ar  
    37    18    40 1   
    38    19    20 1   
    39    19    22 ar  
    40    20    21 1   
    41    21    41 1   
    42    21    42 1   
    43    21    43 1   
    44    22    23 ar  
    45    22    44 1   
    46    23    45 1   
@<TRIPOS>SUBSTRUCTURE
     1 98C         1 TEMP              0 ****  ****    0 ROOT
