@<TRIPOS>MOLECULE
98E
   65    68     1     0     0
SMALL
No Charge or Current Charge


@<TRIPOS>ATOM
      1 C2           2.2960     1.2720     0.1720 c6         1 98E       0.145800
      2 C3           3.1890     0.3760     1.0740 c6         1 98E       0.091000
      3 C11          9.0140    -1.5050     0.1370 c5         1 98E      -0.079900
      4 C12          5.4290    -0.7490     1.1050 c          1 98E       0.613100
      5 C14          3.1660    -2.2320    -0.7260 c3         1 98E      -0.103100
      6 C15         -2.6140     1.2740    -0.4020 ca         1 98E      -0.035000
      7 C16         -2.7320     2.6130     0.0290 ca         1 98E      -0.094000
      8 C17         -1.6790     3.5150    -0.1580 ca         1 98E       0.128000
      9 C18         -0.4990     3.1000    -0.7840 ca         1 98E      -0.110000
     10 C19         -0.3540     1.7740    -1.2330 ca         1 98E      -0.061300
     11 C20         -1.4180     0.8480    -1.0410 ca         1 98E      -0.073300
     12 C21         -1.3060    -0.6110    -1.5110 c3         1 98E      -0.057800
     13 C25         -7.3620    -2.9860     0.1370 ca         1 98E       0.160300
     14 C27         -6.9290    -0.9460     1.1000 ca         1 98E       0.152400
     15 C28         -5.7260    -0.8520     0.3710 ca         1 98E      -0.277600
     16 C29         -5.4180    -1.9310    -0.4860 ca         1 98E       0.152400
     17 N1           1.8610     0.5760    -1.0690 n3         1 98E      -0.721600
     18 N4           4.3300    -0.2670     0.3520 n          1 98E      -0.414800
     19 C5           3.9230    -0.8910    -0.9530 c6         1 98E       0.121700
     20 C6           3.0490     0.0750    -1.8100 c6         1 98E       0.152800
     21 C7           8.0020    -0.6860     0.9670 c5         1 98E      -0.071900
     22 C8           6.6850    -1.0590     0.2290 c5         1 98E      -0.145700
     23 C9           6.8260    -2.6070     0.0180 c5         1 98E      -0.071900
     24 C10          8.3510    -2.9050     0.1830 c5         1 98E      -0.079900
     25 O13          5.3760    -0.8510     2.3250 o          1 98E      -0.607100
     26 N24         -3.6740     0.3340    -0.2410 ns         1 98E      -0.158000
     27 N26         -7.7480    -2.0100     0.9860 nb         1 98E      -0.185000
     28 N30         -6.2340    -2.9970    -0.6030 nb         1 98E      -0.185000
     29 C32         -4.8350     0.3490     0.5230 c          1 98E       0.631700
     30 O33         -5.1330     1.2590     1.2860 o          1 98E      -0.568100
     31 H1           1.4260     1.5940     0.7630 h1         1 98E       0.045200
     32 H2           2.8610     2.1790    -0.0860 h1         1 98E       0.045200
     33 H3           3.5730     0.9910     1.9000 h1         1 98E       0.067200
     34 H4           2.5650    -0.4100     1.5220 h1         1 98E       0.067200
     35 H5           9.1030    -1.1270    -0.8900 hc         1 98E       0.042700
     36 H6          10.0180    -1.5040     0.5770 hc         1 98E       0.042700
     37 H7           2.9190    -2.7090    -1.6820 hc         1 98E       0.044700
     38 H8           3.7770    -2.9390    -0.1540 hc         1 98E       0.044700
     39 H9           2.2280    -2.0850    -0.1780 hc         1 98E       0.044700
     40 H10         -3.6370     2.9810     0.4990 ha         1 98E       0.147000
     41 H11          0.3070     3.8160    -0.9210 ha         1 98E       0.129000
     42 H12         -1.9750    -0.7990    -2.3600 hc         1 98E       0.050033
     43 H13         -0.2980    -0.8980    -1.8260 hc         1 98E       0.050033
     44 H14         -1.5800    -1.3060    -0.7090 hc         1 98E       0.050033
     45 H17         -7.2490    -0.1630     1.7860 h4         1 98E       0.036100
     46 H18         -4.5140    -1.9570    -1.0910 h4         1 98E       0.036100
     47 H20          4.8030    -1.1290    -1.5610 h1         1 98E       0.057700
     48 H21          2.7350    -0.4490    -2.7250 h1         1 98E       0.037700
     49 H22          3.6750     0.9220    -2.1300 h1         1 98E       0.037700
     50 H23          8.0050    -0.9960     2.0200 hc         1 98E       0.054450
     51 H24          8.2070     0.3910     0.9390 hc         1 98E       0.054450
     52 H25          6.6220    -0.5570    -0.7430 hc         1 98E       0.056700
     53 H26          6.2440    -3.1810     0.7500 hc         1 98E       0.054450
     54 H27          6.4620    -2.9050    -0.9720 hc         1 98E       0.054450
     55 H28          8.7320    -3.5680    -0.6020 hc         1 98E       0.042700
     56 H29          8.5490    -3.3980     1.1420 hc         1 98E       0.042700
     57 H30         -3.5580    -0.5040    -0.7930 hn         1 98E       0.157000
     58 H31         -9.3270    -3.9150     0.1750 hc         1 98E       0.065033
     59 H32         -8.2090    -4.6460    -0.9820 hc         1 98E       0.065033
     60 H33         -8.0150    -4.9560     0.7510 hc         1 98E       0.065033
     61 C23          0.9620     1.3910    -1.9200 c3         1 98E       0.215100
     62 Cl          -1.8410     5.1790     0.3870 cl         1 98E      -0.192000
     63 C31         -8.2780    -4.1900     0.0130 c3         1 98E      -0.140400
     64 H15          0.7220     0.8470    -2.8440 h1         1 98E       0.039700
     65 H16          1.4820     2.3070    -2.2350 h1         1 98E       0.039700
@<TRIPOS>BOND
     1     1     2 1   
     2     1    17 1   
     3     1    31 1   
     4     1    32 1   
     5     2    18 1   
     6     2    33 1   
     7     2    34 1   
     8     3    21 1   
     9     3    24 1   
    10     3    35 1   
    11     3    36 1   
    12     4    18 1   
    13     4    22 1   
    14     4    25 2   
    15     5    19 1   
    16     5    37 1   
    17     5    38 1   
    18     5    39 1   
    19     6     7 ar  
    20     6    11 ar  
    21     6    26 1   
    22     7     8 ar  
    23     7    40 1   
    24     8     9 ar  
    25     8    62 1   
    26     9    10 ar  
    27     9    41 1   
    28    10    11 ar  
    29    10    61 1   
    30    11    12 1   
    31    12    42 1   
    32    12    43 1   
    33    12    44 1   
    34    13    27 ar  
    35    13    28 ar  
    36    13    63 1   
    37    14    15 ar  
    38    14    27 ar  
    39    14    45 1   
    40    15    16 ar  
    41    15    29 1   
    42    16    28 ar  
    43    16    46 1   
    44    17    20 1   
    45    17    61 1   
    46    18    19 1   
    47    19    20 1   
    48    19    47 1   
    49    20    48 1   
    50    20    49 1   
    51    21    22 1   
    52    21    50 1   
    53    21    51 1   
    54    22    23 1   
    55    22    52 1   
    56    23    24 1   
    57    23    53 1   
    58    23    54 1   
    59    24    55 1   
    60    24    56 1   
    61    26    29 1   
    62    26    57 1   
    63    29    30 2   
    64    58    63 1   
    65    59    63 1   
    66    60    63 1   
    67    61    64 1   
    68    61    65 1   
@<TRIPOS>SUBSTRUCTURE
     1 98E         1 TEMP              0 ****  ****    0 ROOT
