@<TRIPOS>MOLECULE
98E
   65    68     1     0     0
SMALL
bcc


@<TRIPOS>ATOM
      1 C2           2.3120     1.2750     0.2090 c6         1 98E       0.145800
      2 C3           3.0480     0.3350     1.1470 c6         1 98E       0.091000
      3 C11          8.8560    -1.7140     0.4060 c5         1 98E      -0.079900
      4 C12          5.3970    -0.2830     0.9950 c          1 98E       0.680100
      5 C14          2.9070    -2.2190    -0.5140 c3         1 98E      -0.103100
      6 C15         -2.4810     1.1370    -0.6080 ca         1 98E       0.057600
      7 C16         -2.7260     2.4380    -0.1780 ca         1 98E      -0.112000
      8 C17         -1.7190     3.3760    -0.2930 ca         1 98E       0.036400
      9 C18         -0.4920     3.0430    -0.8420 ca         1 98E      -0.128000
     10 C19         -0.2530     1.7450    -1.2720 ca         1 98E      -0.061300
     11 C20         -1.2440     0.7620    -1.1420 ca         1 98E      -0.073300
     12 C21         -1.0120    -0.6510    -1.5940 c3         1 98E      -0.057800
     13 C25         -7.3160    -2.9000     0.1070 ca         1 98E       0.686300
     14 C27         -5.8910    -1.7360     1.4340 ca         1 98E       0.480700
     15 C28         -5.3540    -1.0810     0.3320 ca         1 98E      -0.408200
     16 C29         -5.9120    -1.4220    -0.8930 ca         1 98E       0.480700
     17 N1           1.8920     0.5840    -0.9930 n3         1 98E      -0.721600
     18 N4           4.1520    -0.3160     0.4620 n          1 98E      -0.481800
     19 C5           3.7610    -0.9810    -0.7770 c6         1 98E       0.121700
     20 C6           3.0420     0.0260    -1.6710 c6         1 98E       0.152800
     21 C7           7.9260    -0.5100     0.6750 c5         1 98E      -0.071900
     22 C8           6.5260    -0.9580     0.2340 c5         1 98E      -0.145700
     23 C9           6.5580    -2.4810     0.4370 c5         1 98E      -0.071900
     24 C10          7.9460    -2.8580    -0.0710 c5         1 98E      -0.079900
     25 O13          5.6090     0.2550     2.0760 o          1 98E      -0.607100
     26 N24         -3.5150     0.1830    -0.5510 ns         1 98E      -0.484100
     27 N26         -6.8490    -2.6390     1.3280 nb         1 98E      -0.711000
     28 N30         -6.8790    -2.3170    -1.0080 nb         1 98E      -0.711000
     29 C32         -4.2940    -0.0560     0.5300 c          1 98E       0.698700
     30 O33         -4.1560     0.5060     1.6010 o          1 98E      -0.568100
     31 H1           1.4400     1.6700     0.7320 h1         1 98E       0.045200
     32 H2           2.9660     2.1330    -0.0290 h1         1 98E       0.045200
     33 H3           3.4330     0.8950     1.9940 h1         1 98E       0.067200
     34 H4           2.3570    -0.4140     1.5410 h1         1 98E       0.067200
     35 H5           9.6270    -1.4840    -0.3300 hc         1 98E       0.042700
     36 H6           9.3770    -1.9970     1.3220 hc         1 98E       0.042700
     37 H7           2.6940    -2.7250    -1.4560 hc         1 98E       0.044700
     38 H8           3.4280    -2.9220     0.1350 hc         1 98E       0.044700
     39 H9           1.9530    -1.9670    -0.0540 hc         1 98E       0.044700
     40 H10         -3.6920     2.7190     0.2130 ha         1 98E       0.165000
     41 H11          0.2830     3.7930    -0.9340 ha         1 98E       0.147000
     42 H12         -1.3750    -0.8110    -2.6130 hc         1 98E       0.050033
     43 H13          0.0450    -0.9000    -1.5720 hc         1 98E       0.050033
     44 H14         -1.5250    -1.3670    -0.9530 hc         1 98E       0.050033
     45 H17         -5.5220    -1.5270     2.4330 h4         1 98E       0.036100
     46 H18         -5.5920    -0.9500    -1.8180 h4         1 98E       0.036100
     47 H20          4.6560    -1.2970    -1.3090 h1         1 98E       0.057700
     48 H21          2.7120    -0.4840    -2.5790 h1         1 98E       0.037700
     49 H22          3.7570     0.8090    -1.9800 h1         1 98E       0.037700
     50 H23          7.9210    -0.2640     1.7360 hc         1 98E       0.054450
     51 H24          8.2420     0.3880     0.1430 hc         1 98E       0.054450
     52 H25          6.4290    -0.7570    -0.8370 hc         1 98E       0.056700
     53 H26          6.4600    -2.7100     1.5020 hc         1 98E       0.054450
     54 H27          5.7600    -3.0070    -0.0880 hc         1 98E       0.054450
     55 H28          7.9300    -2.9000    -1.1630 hc         1 98E       0.042700
     56 H29          8.2720    -3.8360     0.2850 hc         1 98E       0.042700
     57 H30         -3.6040    -0.4300    -1.3460 hn         1 98E       0.323500
     58 H31         -9.3830    -3.3630    -0.0210 hc         1 98E       0.065033
     59 H32         -8.3550    -4.4390    -0.9540 hc         1 98E       0.065033
     60 H33         -8.4280    -4.5810     0.8190 hc         1 98E       0.065033
     61 C23          1.0930     1.4180    -1.8690 c3         1 98E       0.215100
     62 CL          -2.0060     4.9980     0.2380 cl         1 98E      -0.100400
     63 C31         -8.4240    -3.8870    -0.0180 c3         1 98E      -0.140400
     64 H15          0.9520     0.8840    -2.8120 h1         1 98E       0.039700
     65 H16          1.6100     2.3560    -2.1290 h1         1 98E       0.039700
@<TRIPOS>BOND
     1     1     2 1   
     2     1    17 1   
     3     1    31 1   
     4     1    32 1   
     5     2    18 1   
     6     2    33 1   
     7     2    34 1   
     8     3    21 1   
     9     3    24 1   
    10     3    35 1   
    11     3    36 1   
    12     4    18 1   
    13     4    22 1   
    14     4    25 2   
    15     5    19 1   
    16     5    37 1   
    17     5    38 1   
    18     5    39 1   
    19     6     7 ar  
    20     6    11 ar  
    21     6    26 1   
    22     7     8 ar  
    23     7    40 1   
    24     8     9 ar  
    25     8    62 1   
    26     9    10 ar  
    27     9    41 1   
    28    10    11 ar  
    29    10    61 1   
    30    11    12 1   
    31    12    42 1   
    32    12    43 1   
    33    12    44 1   
    34    13    27 ar  
    35    13    28 ar  
    36    13    63 1   
    37    14    15 ar  
    38    14    27 ar  
    39    14    45 1   
    40    15    16 ar  
    41    15    29 1   
    42    16    28 ar  
    43    16    46 1   
    44    17    20 1   
    45    17    61 1   
    46    18    19 1   
    47    19    20 1   
    48    19    47 1   
    49    20    48 1   
    50    20    49 1   
    51    21    22 1   
    52    21    50 1   
    53    21    51 1   
    54    22    23 1   
    55    22    52 1   
    56    23    24 1   
    57    23    53 1   
    58    23    54 1   
    59    24    55 1   
    60    24    56 1   
    61    26    29 1   
    62    26    57 1   
    63    29    30 2   
    64    58    63 1   
    65    59    63 1   
    66    60    63 1   
    67    61    64 1   
    68    61    65 1   
@<TRIPOS>SUBSTRUCTURE
     1 98E         1 TEMP              0 ****  ****    0 ROOT
