@<TRIPOS>MOLECULE
98F
   64    70     1     0     0
SMALL
abcg2


@<TRIPOS>ATOM
      1 C10        -14.1590    20.7170    -8.8020 ca         1 98F       0.157900
      2 C11        -16.1340    20.6470    -7.8110 ca         1 98F       0.123500
      3 C12        -16.0460    19.2710    -7.6040 ca         1 98F      -0.080600
      4 C13        -14.8710    18.6430    -8.0620 ca         1 98F       0.431900
      5 C14        -17.9190    19.8720    -6.7740 cc         1 98F       0.452700
      6 C16        -18.2860    22.8960    -8.5860 c5         1 98F       0.129300
      7 C15        -19.7600    22.5090    -8.6140 c5         1 98F       0.196300
      8 C17        -17.8540    22.3920    -7.2110 c5         1 98F       0.286300
      9 C20        -22.5880    22.2510    -6.7640 c2         1 98F      -0.368600
     10 C7         -22.8410    18.0760   -10.1500 c5         1 98F       0.287300
     11 N9         -14.6470    17.3270    -7.9240 nv         1 98F      -1.091900
     12 C4         -20.3580    18.6580   -10.3200 cc         1 98F       0.454700
     13 N3         -19.1870    18.1050   -10.1030 nd         1 98F      -0.575100
     14 C2         -19.4750    16.8260    -9.6620 ca         1 98F      -0.077600
     15 N2         -21.4080    17.8060   -10.0500 na         1 98F      -0.302300
     16 N1         -21.4790    15.5010    -9.2430 nb         1 98F      -0.209000
     17 C6         -23.4290    18.5450    -8.8190 c5         1 98F       0.126300
     18 C5         -23.3530    20.0620    -8.9500 c5         1 98F       0.190300
     19 N7         -17.1740    18.8080    -6.9510 nd         1 98F      -0.576100
     20 C8         -23.6210    20.2760   -10.4380 c5         1 98F       0.140300
     21 N          -19.2800    14.6020    -8.8890 nb         1 98F      -0.325000
     22 C          -20.6160    14.5470    -8.8950 ca         1 98F       0.149900
     23 C1         -20.8530    16.6220    -9.6220 ca         1 98F       0.108500
     24 C18        -20.1830    22.7380    -7.1540 c5         1 98F       0.168500
     25 C19        -21.3160    21.8650    -6.7480 c2         1 98F      -0.179200
     26 C3         -18.6680    15.7400    -9.2710 ca         1 98F       0.438900
     27 C9         -23.0330    21.5370   -11.0260 c3         1 98F       0.238600
     28 F2         -24.7690    18.1420    -8.7710 f          1 98F      -0.257000
     29 N4         -13.9400    19.4050    -8.6670 nb         1 98F      -0.317000
     30 N5         -15.2180    21.4210    -8.4050 nb         1 98F      -0.198000
     31 N6         -17.3450    21.0200    -7.2760 na         1 98F      -0.299300
     32 O1         -23.0720    19.1070   -11.0850 os         1 98F      -0.451000
     33 O10        -24.2820    20.7840    -8.1810 os         1 98F      -0.566400
     34 O2         -21.6090    21.4840   -10.9590 os         1 98F      -0.633400
     35 O5         -18.9950    22.4310    -6.3850 os         1 98F      -0.469000
     36 O7         -20.5630    23.2670    -9.4850 os         1 98F      -0.561400
     37 P          -20.6830    22.8160   -11.0600 p5         1 98F       1.406800
     38 P1         -23.9660    21.0990    -6.5850 p5         1 98F       1.282000
     39 N10        -17.3280    15.7960    -9.2580 nv         1 98F      -1.079900
     40 H1         -13.3710    21.2760    -9.2960 h5         1 98F       0.033100
     41 H2         -18.8770    19.8920    -6.2850 h5         1 98F       0.092800
     42 H3         -17.7020    22.5030    -9.4110 h1         1 98F       0.125700
     43 H4         -19.8180    21.4420    -8.8450 h1         1 98F       0.053700
     44 H5         -17.0660    23.0230    -6.7960 h2         1 98F       0.089700
     45 H6         -22.8340    23.2830    -7.0000 ha         1 98F       0.183000
     46 H7         -23.3210    17.1520   -10.4730 h2         1 98F       0.091700
     47 H8         -13.7740    16.9320    -8.2340 hn         1 98F       0.497500
     48 H9         -15.3040    16.7420    -7.4380 hn         1 98F       0.497500
     49 H11        -22.9280    18.1390    -7.9460 h1         1 98F       0.114700
     50 H13        -22.3280    20.3650    -8.7190 h1         1 98F       0.056700
     51 H15        -24.7030    20.3010   -10.6010 h1         1 98F       0.066700
     52 H16        -21.0490    13.6050    -8.5760 h5         1 98F       0.027100
     53 H17        -20.4310    23.7940    -7.0210 h1         1 98F       0.082700
     54 H18        -21.0630    20.8310    -6.5320 ha         1 98F       0.175000
     55 H19        -23.3400    21.6440   -12.0680 h1         1 98F       0.042700
     56 H20        -23.4250    22.3870   -10.4620 h1         1 98F       0.042700
     57 H23        -16.7940    14.9760    -9.0250 hn         1 98F       0.497500
     58 H24        -16.8450    16.6130    -9.5900 hn         1 98F       0.497500
     59 O          -19.3510    22.3410   -11.5300 o          1 98F      -0.818000
     60 O22        -25.1820    21.8200    -6.1000 o          1 98F      -0.827500
     61 O3         -21.4250    23.9190   -11.7320 o          1 98F      -0.818000
     62 O4         -23.5010    19.8340    -5.9300 o          1 98F      -0.827500
     63 F1         -18.1660    24.2910    -8.5920 f          1 98F      -0.257000
     64 H10        -20.5340    19.6590   -10.6760 h5         1 98F       0.129800
@<TRIPOS>BOND
     1     1    29 ar  
     2     1    30 ar  
     3     1    40 1   
     4     2     3 ar  
     5     2    30 ar  
     6     2    31 1   
     7     3     4 ar  
     8     3    19 1   
     9     4    11 1   
    10     4    29 ar  
    11     5    19 2   
    12     5    31 1   
    13     5    41 1   
    14     6     7 1   
    15     6     8 1   
    16     6    42 1   
    17     6    63 1   
    18     7    24 1   
    19     7    36 1   
    20     7    43 1   
    21     8    31 1   
    22     8    35 1   
    23     8    44 1   
    24     9    25 2   
    25     9    38 1   
    26     9    45 1   
    27    10    15 1   
    28    10    17 1   
    29    10    32 1   
    30    10    46 1   
    31    11    47 1   
    32    11    48 1   
    33    12    13 2   
    34    12    15 1   
    35    12    64 1   
    36    13    14 1   
    37    14    23 ar  
    38    14    26 ar  
    39    15    23 1   
    40    16    22 ar  
    41    16    23 ar  
    42    17    18 1   
    43    17    28 1   
    44    17    49 1   
    45    18    20 1   
    46    18    33 1   
    47    18    50 1   
    48    20    27 1   
    49    20    32 1   
    50    20    51 1   
    51    21    22 ar  
    52    21    26 ar  
    53    22    52 1   
    54    24    25 1   
    55    24    35 1   
    56    24    53 1   
    57    25    54 1   
    58    26    39 1   
    59    27    34 1   
    60    27    55 1   
    61    27    56 1   
    62    33    38 1   
    63    34    37 1   
    64    36    37 1   
    65    37    59 1   
    66    37    61 1   
    67    38    60 1   
    68    38    62 1   
    69    39    57 1   
    70    39    58 1   
@<TRIPOS>SUBSTRUCTURE
     1 98F         1 TEMP              0 ****  ****    0 ROOT
