@<TRIPOS>MOLECULE
98F
   64    70     1     0     0
SMALL
No Charge or Current Charge


@<TRIPOS>ATOM
      1 C10        -16.1890    19.8240    -9.9830 ca         1 98F       0.157900
      2 C11        -16.9040    20.6470    -7.9640 ca         1 98F       0.123500
      3 C12        -16.4630    19.4990    -7.3520 ca         1 98F      -0.080600
      4 C13        -15.8780    18.4940    -8.1540 ca         1 98F       0.431900
      5 C14        -17.2020    20.7380    -5.7560 cc         1 98F       0.452700
      6 C16        -18.2620    23.4460    -8.3770 c5         1 98F       0.129300
      7 C15        -19.6630    22.7790    -8.5060 c5         1 98F       0.196300
      8 C17        -17.8450    22.8390    -6.9980 c5         1 98F       0.286300
      9 C20        -22.4780    22.0710    -6.8480 c2         1 98F      -0.368600
     10 C7         -22.5150    18.0600   -10.2610 c5         1 98F       0.287300
     11 N9         -15.4110    17.3220    -7.6440 nv         1 98F      -1.091900
     12 C4         -20.0610    18.5250    -9.7670 cc         1 98F       0.454700
     13 N3         -18.9490    17.8370    -9.4530 nd         1 98F      -0.575100
     14 C2         -19.3360    16.5040    -9.6000 ca         1 98F      -0.077600
     15 N2         -21.1170    17.6660   -10.0930 na         1 98F      -0.302300
     16 N1         -21.2340    15.1900   -10.1830 nb         1 98F      -0.209000
     17 C6         -23.2630    18.4940    -8.9650 c5         1 98F       0.126300
     18 C5         -23.0080    20.0280    -8.9940 c5         1 98F       0.190300
     19 N7         -16.6450    19.5300    -5.9670 nd         1 98F      -0.576100
     20 C8         -23.1890    20.3190   -10.5060 c5         1 98F       0.140300
     21 N          -19.1490    14.1140    -9.5790 nb         1 98F      -0.325000
     22 C          -20.4480    14.1080    -9.9670 ca         1 98F       0.149900
     23 C1         -20.6450    16.3870    -9.9930 ca         1 98F       0.108500
     24 C18        -20.2050    23.0090    -7.0650 c5         1 98F       0.168500
     25 C19        -21.1520    21.8800    -6.6970 c2         1 98F      -0.179200
     26 C3         -18.5910    15.3210    -9.3970 ca         1 98F       0.438900
     27 C9         -22.5930    21.6750   -10.9790 c3         1 98F       0.238600
     28 F2         -24.6300    18.1820    -9.0620 f          1 98F      -0.257000
     29 N4         -15.7230    18.6580    -9.4750 nb         1 98F      -0.317000
     30 N5         -16.7760    20.8310    -9.2940 nb         1 98F      -0.198000
     31 N6         -17.4010    21.4360    -6.9530 na         1 98F      -0.299300
     32 O1         -22.5770    19.1810   -11.1800 os         1 98F      -0.451000
     33 O10        -24.0410    20.7250    -8.2460 os         1 98F      -0.566400
     34 O2         -21.1560    21.6400   -10.9060 os         1 98F      -0.633400
     35 O5         -19.0500    22.9390    -6.1940 os         1 98F      -0.469000
     36 O7         -20.5000    23.4860    -9.4570 os         1 98F      -0.561400
     37 P          -20.3490    23.0310   -10.9960 p5         1 98F       1.406800
     38 P1         -23.8440    20.8430    -6.6450 p5         1 98F       1.282000
     39 N10        -17.2900    15.3110    -8.9990 nv         1 98F      -1.079900
     40 H1         -16.0780    19.9680   -11.0570 h5         1 98F       0.033100
     41 H2         -17.4770    21.1540    -4.7930 h5         1 98F       0.092800
     42 H3         -17.5750    23.1950    -9.1910 h1         1 98F       0.125700
     43 H4         -19.5960    21.7110    -8.7550 h1         1 98F       0.053700
     44 H5         -17.0340    23.4250    -6.5470 h2         1 98F       0.089700
     45 H6         -22.8960    23.0180    -7.1790 ha         1 98F       0.183000
     46 H7         -23.0160    17.1910   -10.7040 h2         1 98F       0.091700
     47 H8         -14.6480    16.8820    -8.1520 hn         1 98F       0.497500
     48 H9         -15.3260    17.2910    -6.6310 hn         1 98F       0.497500
     49 H11        -22.8570    18.0060    -8.0700 h1         1 98F       0.114700
     50 H13        -22.0030    20.2920    -8.6430 h1         1 98F       0.056700
     51 H15        -24.2590    20.3180   -10.7530 h1         1 98F       0.066700
     52 H16        -20.9080    13.1330   -10.1170 h5         1 98F       0.027100
     53 H17        -20.6640    24.0020    -6.9620 h1         1 98F       0.082700
     54 H18        -20.7620    20.9120    -6.3760 ha         1 98F       0.175000
     55 H19        -22.9170    21.8570   -12.0120 h1         1 98F       0.042700
     56 H20        -23.0010    22.4790   -10.3510 h1         1 98F       0.042700
     57 H23        -16.9200    14.4480    -8.6150 hn         1 98F       0.497500
     58 H24        -16.8960    16.1790    -8.6240 hn         1 98F       0.497500
     59 O          -18.9250    22.8070   -11.3740 o          1 98F      -0.818000
     60 O22        -25.0510    21.5180    -6.0820 o          1 98F      -0.827500
     61 O3         -21.0230    23.9850   -11.9230 o          1 98F      -0.818000
     62 O4         -23.3690    19.5840    -6.0000 o          1 98F      -0.827500
     63 F1         -18.3490    24.8480    -8.3000 f          1 98F      -0.257000
     64 H10        -20.1620    19.6040    -9.7710 h5         1 98F       0.129800
@<TRIPOS>BOND
     1     1    29 ar  
     2     1    30 ar  
     3     1    40 1   
     4     2     3 ar  
     5     2    30 ar  
     6     2    31 1   
     7     3     4 ar  
     8     3    19 1   
     9     4    11 1   
    10     4    29 ar  
    11     5    19 2   
    12     5    31 1   
    13     5    41 1   
    14     6     7 1   
    15     6     8 1   
    16     6    42 1   
    17     6    63 1   
    18     7    24 1   
    19     7    36 1   
    20     7    43 1   
    21     8    31 1   
    22     8    35 1   
    23     8    44 1   
    24     9    25 2   
    25     9    38 1   
    26     9    45 1   
    27    10    15 1   
    28    10    17 1   
    29    10    32 1   
    30    10    46 1   
    31    11    47 1   
    32    11    48 1   
    33    12    13 2   
    34    12    15 1   
    35    12    64 1   
    36    13    14 1   
    37    14    23 ar  
    38    14    26 ar  
    39    15    23 1   
    40    16    22 ar  
    41    16    23 ar  
    42    17    18 1   
    43    17    28 1   
    44    17    49 1   
    45    18    20 1   
    46    18    33 1   
    47    18    50 1   
    48    20    27 1   
    49    20    32 1   
    50    20    51 1   
    51    21    22 ar  
    52    21    26 ar  
    53    22    52 1   
    54    24    25 1   
    55    24    35 1   
    56    24    53 1   
    57    25    54 1   
    58    26    39 1   
    59    27    34 1   
    60    27    55 1   
    61    27    56 1   
    62    33    38 1   
    63    34    37 1   
    64    36    37 1   
    65    37    59 1   
    66    37    61 1   
    67    38    60 1   
    68    38    62 1   
    69    39    57 1   
    70    39    58 1   
@<TRIPOS>SUBSTRUCTURE
     1 98F         1 TEMP              0 ****  ****    0 ROOT
