@<TRIPOS>MOLECULE
98H
   79    82     1     0     0
SMALL
bcc


@<TRIPOS>ATOM
      1 C3           9.3110     0.5220     0.5360 c3         1 98H       0.177600
      2 O1           9.1960     1.7800    -0.0760 oh         1 98H      -0.596800
      3 C41         -6.5530     1.5740     0.9650 c3         1 98H      -0.083100
      4 C45         -6.5500     0.5870    -1.3150 c3         1 98H      -0.083100
      5 C49         -3.8510     1.7360    -0.5210 c6         1 98H      -0.179400
      6 C52         -2.3870     1.9240    -0.2160 c          1 98H       0.577300
      7 C58         -1.3570    -1.7320     0.4250 c6         1 98H      -0.047200
      8 C12          4.6420    -0.1750    -0.0930 c3         1 98H      -0.074400
      9 C15          3.2930    -0.7620    -0.5330 c3         1 98H      -0.049700
     10 C17          2.1580     0.0260     0.1400 c5         1 98H      -0.052700
     11 C19          0.6930    -0.3820    -0.1320 c5         1 98H      -0.033000
     12 C20         -0.0900     0.8810     0.3480 c5         1 98H       0.008200
     13 C21          0.7070     2.0020    -0.3410 c5         1 98H      -0.060400
     14 C24          2.1710     1.5240    -0.2590 c5         1 98H      -0.079400
     15 C27         -1.5680     0.7280     0.0410 ce         1 98H      -0.181400
     16 C28         -2.1490    -0.4930     0.1090 c2         1 98H      -0.047400
     17 C29         -3.6170    -0.7360    -0.2550 c6         1 98H      -0.008800
     18 C30         -4.4220     0.5100     0.1710 c6         1 98H      -0.033700
     19 C6           8.1320    -0.3630     0.2430 c2         1 98H      -0.135400
     20 C7           7.0990     0.0440    -0.4960 c2         1 98H      -0.140200
     21 C9           5.8620    -0.7290    -0.8370 c3         1 98H      -0.043200
     22 C32         -5.9750     0.4450     0.1060 c6         1 98H      -0.135000
     23 C33         -6.4680    -0.8930     0.6470 c          1 98H       0.579100
     24 C34         -5.6940    -2.1150     0.2370 c6         1 98H      -0.183400
     25 C37         -4.1980    -1.9450     0.4910 c6         1 98H      -0.061400
     26 O40         -7.4490    -0.9750     1.3510 o          1 98H      -0.516100
     27 O53         -1.9240     3.0510    -0.1840 o          1 98H      -0.530100
     28 C54         -3.5990    -1.0330    -1.7670 c3         1 98H      -0.083100
     29 C61          0.1550    -1.5830     0.6280 c6         1 98H      -0.059400
     30 C64          0.0100     1.1210     1.8680 c3         1 98H      -0.082100
     31 C68          0.5120    -0.6140    -1.6400 c3         1 98H      -0.081100
     32 C72          3.2460    -2.2590    -0.2310 c3         1 98H      -0.087100
     33 C76          8.2670    -1.7190     0.8700 c3         1 98H      -0.054900
     34 H1          10.2210    -0.0030     0.2080 h1         1 98H       0.019700
     35 H2           9.4030     0.6140     1.6290 h1         1 98H       0.019700
     36 H3           9.9370     2.3190     0.2140 ho         1 98H       0.405000
     37 H4          -7.6410     1.5760     0.9340 hc         1 98H       0.042867
     38 H5          -6.2450     1.4830     2.0080 hc         1 98H       0.042867
     39 H6          -6.2190     2.5470     0.6060 hc         1 98H       0.042867
     40 H7          -6.2510     1.5400    -1.7520 hc         1 98H       0.042867
     41 H8          -6.2350    -0.2000    -1.9970 hc         1 98H       0.042867
     42 H9          -7.6400     0.5750    -1.2820 hc         1 98H       0.042867
     43 H10         -4.3650     2.6520    -0.2290 hc         1 98H       0.072700
     44 H11         -3.9610     1.6600    -1.6080 hc         1 98H       0.072700
     45 H12         -1.7880    -2.1960     1.3170 hc         1 98H       0.049200
     46 H13         -1.5480    -2.4550    -0.3760 hc         1 98H       0.049200
     47 H14          4.6310     0.9090    -0.2310 hc         1 98H       0.042200
     48 H15          4.7720    -0.3420     0.9820 hc         1 98H       0.042200
     49 H16          3.2140    -0.6250    -1.6190 hc         1 98H       0.047700
     50 H17          2.3270    -0.0580     1.2210 hc         1 98H       0.047700
     51 H18          0.3990     2.1290    -1.3800 hc         1 98H       0.054700
     52 H19          0.5690     2.9650     0.1450 hc         1 98H       0.054700
     53 H20          2.7410     2.1160     0.4580 hc         1 98H       0.041200
     54 H21          2.6660     1.6580    -1.2250 hc         1 98H       0.041200
     55 H22         -4.1990     0.6200     1.2410 hc         1 98H       0.055700
     56 H23          7.1160     1.0580    -0.8830 ha         1 98H       0.137000
     57 H24          5.9900    -1.7920    -0.6300 hc         1 98H       0.043200
     58 H25          5.6810    -0.6450    -1.9150 hc         1 98H       0.043200
     59 H26         -6.0760    -2.9800     0.7800 hc         1 98H       0.068700
     60 H27         -5.8800    -2.3050    -0.8240 hc         1 98H       0.068700
     61 H28         -3.6960    -2.8670     0.1960 hc         1 98H       0.050200
     62 H29         -4.0340    -1.8280     1.5670 hc         1 98H       0.050200
     63 H30         -2.9060    -1.8510    -1.9710 hc         1 98H       0.039367
     64 H31         -4.5650    -1.3410    -2.1610 hc         1 98H       0.039367
     65 H32         -3.2590    -0.1800    -2.3520 hc         1 98H       0.039367
     66 H33          0.3880    -1.4890     1.6900 hc         1 98H       0.045200
     67 H34          0.6290    -2.5090     0.3040 hc         1 98H       0.045200
     68 H35         -0.5560     2.0180     2.1250 hc         1 98H       0.036367
     69 H36         -0.4080     0.3020     2.4530 hc         1 98H       0.036367
     70 H37          1.0350     1.2870     2.2050 hc         1 98H       0.036367
     71 H38         -0.5340    -0.6720    -1.9410 hc         1 98H       0.033367
     72 H39          0.9720     0.1710    -2.2400 hc         1 98H       0.033367
     73 H40          0.9830    -1.5540    -1.9320 hc         1 98H       0.033367
     74 H41          2.3850    -2.7460    -0.6860 hc         1 98H       0.031367
     75 H42          4.1290    -2.7720    -0.6120 hc         1 98H       0.031367
     76 H43          3.2000    -2.4370     0.8460 hc         1 98H       0.031367
     77 H44          8.4360    -1.6320     1.9460 hc         1 98H       0.038700
     78 H45          7.3920    -2.3500     0.7260 hc         1 98H       0.038700
     79 H46          9.1300    -2.2530     0.4640 hc         1 98H       0.038700
@<TRIPOS>BOND
     1     1     2 1   
     2     1    19 1   
     3     1    34 1   
     4     1    35 1   
     5     2    36 1   
     6     3    22 1   
     7     3    37 1   
     8     3    38 1   
     9     3    39 1   
    10     4    22 1   
    11     4    40 1   
    12     4    41 1   
    13     4    42 1   
    14     5     6 1   
    15     5    18 1   
    16     5    43 1   
    17     5    44 1   
    18     6    15 1   
    19     6    27 2   
    20     7    16 1   
    21     7    29 1   
    22     7    45 1   
    23     7    46 1   
    24     8     9 1   
    25     8    21 1   
    26     8    47 1   
    27     8    48 1   
    28     9    10 1   
    29     9    32 1   
    30     9    49 1   
    31    10    11 1   
    32    10    14 1   
    33    10    50 1   
    34    11    12 1   
    35    11    29 1   
    36    11    31 1   
    37    12    13 1   
    38    12    15 1   
    39    12    30 1   
    40    13    14 1   
    41    13    51 1   
    42    13    52 1   
    43    14    53 1   
    44    14    54 1   
    45    15    16 2   
    46    16    17 1   
    47    17    18 1   
    48    17    25 1   
    49    17    28 1   
    50    18    22 1   
    51    18    55 1   
    52    19    20 2   
    53    19    33 1   
    54    20    21 1   
    55    20    56 1   
    56    21    57 1   
    57    21    58 1   
    58    22    23 1   
    59    23    24 1   
    60    23    26 2   
    61    24    25 1   
    62    24    59 1   
    63    24    60 1   
    64    25    61 1   
    65    25    62 1   
    66    28    63 1   
    67    28    64 1   
    68    28    65 1   
    69    29    66 1   
    70    29    67 1   
    71    30    68 1   
    72    30    69 1   
    73    30    70 1   
    74    31    71 1   
    75    31    72 1   
    76    31    73 1   
    77    32    74 1   
    78    32    75 1   
    79    32    76 1   
    80    33    77 1   
    81    33    78 1   
    82    33    79 1   
@<TRIPOS>SUBSTRUCTURE
     1 98H         1 TEMP              0 ****  ****    0 ROOT
