@<TRIPOS>MOLECULE
98H
   79    82     1     0     0
SMALL
No Charge or Current Charge


@<TRIPOS>ATOM
      1 C3           9.4200     0.6930     0.2830 c3         1 98H       0.200800
      2 O1           9.1110     1.8650     1.0460 oh         1 98H      -0.659000
      3 C41         -6.6210     1.7670     0.7460 c3         1 98H      -0.083100
      4 C45         -6.4290     0.8750    -1.5810 c3         1 98H      -0.083100
      5 C49         -3.6670     1.7260    -0.5200 c6         1 98H      -0.179400
      6 C52         -2.3290     1.8630     0.1950 c          1 98H       0.577300
      7 C58         -1.3470    -1.9420     0.4780 c6         1 98H      -0.047200
      8 C12          4.7870    -0.2180    -0.2530 c3         1 98H      -0.074400
      9 C15          3.3970    -0.8350    -0.6160 c3         1 98H      -0.049700
     10 C17          2.2260    -0.0680     0.1040 c5         1 98H      -0.052700
     11 C19          0.7320    -0.5120    -0.1360 c5         1 98H      -0.033000
     12 C20         -0.0080     0.7470     0.5960 c5         1 98H       0.008200
     13 C21          0.6450     1.8990    -0.2220 c5         1 98H      -0.060400
     14 C24          2.1560     1.4690    -0.2770 c5         1 98H      -0.079400
     15 C27         -1.5450     0.5800     0.2990 ce         1 98H      -0.181400
     16 C28         -2.1560    -0.6370     0.2690 c2         1 98H      -0.047400
     17 C29         -3.6950    -0.8310    -0.1340 c6         1 98H      -0.008800
     18 C30         -4.4410     0.5360     0.1250 c6         1 98H      -0.033700
     19 C6           8.1750    -0.1670     0.1150 c2         1 98H      -0.135400
     20 C7           7.2440     0.0970    -0.8240 c2         1 98H      -0.190200
     21 C9           5.9800    -0.6910    -1.1190 c3         1 98H      -0.043200
     22 C32         -6.0120     0.5860    -0.0950 c6         1 98H      -0.135000
     23 C33         -6.7420    -0.7300     0.3500 c          1 98H       0.579100
     24 C34         -5.9450    -2.0420     0.4500 c6         1 98H      -0.183400
     25 C37         -4.4350    -1.9040     0.7610 c6         1 98H      -0.061400
     26 O40         -7.9400    -0.7420     0.6100 o          1 98H      -0.516100
     27 O53         -1.9640     2.9540     0.6180 o          1 98H      -0.530100
     28 C54         -3.7760    -1.3060    -1.6600 c3         1 98H      -0.083100
     29 C61          0.2090    -1.7920     0.5850 c6         1 98H      -0.059400
     30 C64          0.1780     0.9520     2.1520 c3         1 98H      -0.082100
     31 C68          0.4380    -0.6880    -1.6760 c3         1 98H      -0.081100
     32 C72          3.3860    -2.3640    -0.3550 c3         1 98H      -0.087100
     33 C76          8.1180    -1.3200     1.1090 c3         1 98H      -0.054900
     34 H1           9.8000     0.9780    -0.7070 h1         1 98H       0.019700
     35 H2          10.2130     0.1170     0.7800 h1         1 98H       0.019700
     36 H3           9.9420     2.3850     1.1210 ho         1 98H       0.444000
     37 H4          -7.7060     1.8540     0.6090 hc         1 98H       0.042867
     38 H5          -6.4430     1.6250     1.8190 hc         1 98H       0.042867
     39 H6          -6.1980     2.7400     0.4710 hc         1 98H       0.042867
     40 H7          -6.0040     1.8160    -1.9520 hc         1 98H       0.042867
     41 H8          -6.1340     0.0900    -2.2790 hc         1 98H       0.042867
     42 H9          -7.5180     0.9680    -1.6720 hc         1 98H       0.042867
     43 H10         -4.1960     2.6850    -0.4800 hc         1 98H       0.072700
     44 H11         -3.4600     1.4770    -1.5660 hc         1 98H       0.072700
     45 H12         -1.7080    -2.4560     1.3780 hc         1 98H       0.049200
     46 H13         -1.5550    -2.6270    -0.3540 hc         1 98H       0.049200
     47 H14          4.7390     0.8720    -0.3490 hc         1 98H       0.042200
     48 H15          5.0070    -0.4210     0.8030 hc         1 98H       0.042200
     49 H16          3.2710    -0.7010    -1.6970 hc         1 98H       0.047700
     50 H17          2.4630    -0.1720     1.1680 hc         1 98H       0.047700
     51 H18          0.2160     1.9990    -1.2260 hc         1 98H       0.054700
     52 H19          0.5420     2.8780     0.2580 hc         1 98H       0.054700
     53 H20          2.7570     2.0650     0.4190 hc         1 98H       0.041200
     54 H21          2.5630     1.6620    -1.2760 hc         1 98H       0.041200
     55 H22         -4.3310     0.6910     1.2090 hc         1 98H       0.055700
     56 H23          7.3790     0.9580    -1.4820 ha         1 98H       0.187000
     57 H24          6.1660    -1.7580    -0.9640 hc         1 98H       0.043200
     58 H25          5.7220    -0.5820    -2.1800 hc         1 98H       0.043200
     59 H26         -6.4480    -2.7100     1.1620 hc         1 98H       0.068700
     60 H27         -6.0540    -2.5340    -0.5240 hc         1 98H       0.068700
     61 H28         -3.9640    -2.8880     0.6410 hc         1 98H       0.050200
     62 H29         -4.3100    -1.6400     1.8210 hc         1 98H       0.050200
     63 H30         -3.2350    -2.2470    -1.8040 hc         1 98H       0.039367
     64 H31         -4.7910    -1.5010    -2.0090 hc         1 98H       0.039367
     65 H32         -3.3210    -0.5820    -2.3430 hc         1 98H       0.039367
     66 H33          0.5020    -1.7680     1.6420 hc         1 98H       0.045200
     67 H34          0.6690    -2.7010     0.1850 hc         1 98H       0.045200
     68 H35         -0.3630     1.8420     2.4930 hc         1 98H       0.036367
     69 H36         -0.2200     0.1060     2.7220 hc         1 98H       0.036367
     70 H37          1.2220     1.0960     2.4470 hc         1 98H       0.036367
     71 H38         -0.6300    -0.6850    -1.9120 hc         1 98H       0.033367
     72 H39          0.8970     0.0930    -2.2910 hc         1 98H       0.033367
     73 H40          0.8390    -1.6390    -2.0450 hc         1 98H       0.033367
     74 H41          2.5470    -2.8400    -0.8700 hc         1 98H       0.031367
     75 H42          4.2840    -2.8550    -0.7390 hc         1 98H       0.031367
     76 H43          3.3140    -2.5790     0.7180 hc         1 98H       0.031367
     77 H44          8.1900    -0.9500     2.1390 hc         1 98H       0.038700
     78 H45          7.1890    -1.8960     1.0430 hc         1 98H       0.038700
     79 H46          8.9490    -2.0180     0.9490 hc         1 98H       0.038700
@<TRIPOS>BOND
     1     1     2 1   
     2     1    19 1   
     3     1    34 1   
     4     1    35 1   
     5     2    36 1   
     6     3    22 1   
     7     3    37 1   
     8     3    38 1   
     9     3    39 1   
    10     4    22 1   
    11     4    40 1   
    12     4    41 1   
    13     4    42 1   
    14     5     6 1   
    15     5    18 1   
    16     5    43 1   
    17     5    44 1   
    18     6    15 1   
    19     6    27 2   
    20     7    16 1   
    21     7    29 1   
    22     7    45 1   
    23     7    46 1   
    24     8     9 1   
    25     8    21 1   
    26     8    47 1   
    27     8    48 1   
    28     9    10 1   
    29     9    32 1   
    30     9    49 1   
    31    10    11 1   
    32    10    14 1   
    33    10    50 1   
    34    11    12 1   
    35    11    29 1   
    36    11    31 1   
    37    12    13 1   
    38    12    15 1   
    39    12    30 1   
    40    13    14 1   
    41    13    51 1   
    42    13    52 1   
    43    14    53 1   
    44    14    54 1   
    45    15    16 2   
    46    16    17 1   
    47    17    18 1   
    48    17    25 1   
    49    17    28 1   
    50    18    22 1   
    51    18    55 1   
    52    19    20 2   
    53    19    33 1   
    54    20    21 1   
    55    20    56 1   
    56    21    57 1   
    57    21    58 1   
    58    22    23 1   
    59    23    24 1   
    60    23    26 2   
    61    24    25 1   
    62    24    59 1   
    63    24    60 1   
    64    25    61 1   
    65    25    62 1   
    66    28    63 1   
    67    28    64 1   
    68    28    65 1   
    69    29    66 1   
    70    29    67 1   
    71    30    68 1   
    72    30    69 1   
    73    30    70 1   
    74    31    71 1   
    75    31    72 1   
    76    31    73 1   
    77    32    74 1   
    78    32    75 1   
    79    32    76 1   
    80    33    77 1   
    81    33    78 1   
    82    33    79 1   
@<TRIPOS>SUBSTRUCTURE
     1 98H         1 TEMP              0 ****  ****    0 ROOT
