@<TRIPOS>MOLECULE
98I
  123   131     1     0     0
SMALL
abcg2


@<TRIPOS>ATOM
      1 CAA        -13.0810     6.8610    20.2770 ca         1 98I      -0.206000
      2 CAB        -12.2270     7.6460    19.5370 ca         1 98I      -0.017000
      3 CAC        -10.9080     7.8850    19.9240 ca         1 98I      -0.258600
      4 CAD        -10.4720     7.2610    21.0940 ca         1 98I       0.208100
      5 CAE        -11.3020     6.4390    21.8280 ca         1 98I      -0.222000
      6 CAF        -12.6510     6.2400    21.4690 ca         1 98I       0.375000
      7 CAH         -8.1430     7.0750    20.7590 ca         1 98I       0.049100
      8 CAI         -8.2210     6.1410    19.7440 ca         1 98I      -0.101000
      9 CAJ         -7.0410     5.8610    19.0560 ca         1 98I      -0.110800
     10 CAK         -5.8720     6.5400    19.4660 ca         1 98I       0.338500
     11 CAM         -6.9260     7.7050    21.0590 ca         1 98I       0.357900
     12 CAN         -6.6600     4.9830    18.0000 cc         1 98I      -0.241200
     13 CAO         -5.3150     5.1520    17.8240 cd         1 98I      -0.145100
     14 CAQ        -10.0590     8.8300    19.1760 c          1 98I       0.663700
     15 CAW         -7.7030     9.6080    17.0040 ca         1 98I      -0.385500
     16 CAX         -7.0290    10.4570    17.8910 ca         1 98I       0.097000
     17 CAY         -5.6890    10.3020    18.0990 ca         1 98I      -0.240000
     18 CAZ         -4.9240     9.3070    17.4330 ca         1 98I       0.466000
     19 CBA         -5.6380     8.4990    16.4970 ca         1 98I      -0.314200
     20 CBB         -7.0080     8.6470    16.3090 ca         1 98I       0.113000
     21 CBE         -2.9310     9.9740    18.7100 c3         1 98I       0.216800
     22 CBF         -1.5180     9.4610    18.9490 c6         1 98I      -0.079700
     23 CBG         -1.5020     8.0320    19.4910 c6         1 98I      -0.069400
     24 CBH         -0.0900     7.5620    19.8190 c6         1 98I      -0.084400
     25 CBI          0.6330     8.4860    20.7970 c6         1 98I       0.183000
     26 CBJ          0.6060     9.9140    20.2410 c6         1 98I      -0.084400
     27 CBK         -0.8010    10.4030    19.9160 c6         1 98I      -0.069400
     28 CBO          0.0130     8.4160    22.1920 c3         1 98I      -0.120100
     29 CBQ        -12.9580     4.7850    23.3970 c6         1 98I       0.210300
     30 CBR        -14.0360     4.3750    24.3880 c6         1 98I      -0.068400
     31 CBS        -15.1580     3.5960    23.7230 cy         1 98I      -0.073000
     32 CBT        -15.7160     4.4600    22.6130 c6         1 98I      -0.068400
     33 CBU        -14.6390     4.8290    21.6090 c6         1 98I       0.210300
     34 CBV        -16.1660     2.9830    24.7160 cy         1 98I      -0.078400
     35 CBW        -15.3790     1.6640    24.6480 cy         1 98I       0.159500
     36 CBX        -14.7460     2.1570    23.3360 cy         1 98I      -0.078400
     37 CBZ        -16.9370     0.2710    25.8400 c5         1 98I       0.157800
     38 CCA        -17.3970    -1.1790    25.7590 c5         1 98I      -0.080400
     39 CCB        -16.2290    -1.8930    25.0570 c5         1 98I      -0.075400
     40 CCC        -15.2860    -0.7560    24.6070 c5         1 98I       0.212800
     41 CCD        -14.6550    -0.9990    23.2550 ca         1 98I      -0.072300
     42 CCE        -13.3020    -1.3240    23.0900 ca         1 98I      -0.064300
     43 CCF        -12.8190    -1.5090    21.7920 ca         1 98I      -0.114000
     44 CCG        -13.6410    -1.4020    20.6820 ca         1 98I      -0.109000
     45 CCH        -14.9880    -1.1130    20.8540 ca         1 98I      -0.121000
     46 CCI        -15.4790    -0.9180    22.1320 ca         1 98I      -0.090000
     47 CCJ        -12.3470    -1.4360    24.2650 c3         1 98I      -0.019400
     48 CCK        -11.2490    -2.4790    24.0650 c3         1 98I      -0.086600
     49 CCL        -11.7330    -0.0710    24.5870 c3         1 98I      -0.086600
     50 NAL         -5.7940     7.4410    20.4300 nb         1 98I      -0.668000
     51 NAP         -4.8410     6.0880    18.6980 na         1 98I      -0.329400
     52 NAS        -10.1460     8.7060    17.8070 ns         1 98I      -0.585300
     53 NBC         -4.9900     7.5030    15.6960 no         1 98I       0.713200
     54 NBD         -3.6260     9.1880    17.7100 nu         1 98I      -0.930200
     55 NBN        -13.4960     5.4830    22.2370 nh         1 98I      -0.791400
     56 NBY        -16.1310     0.4360    24.6420 n3         1 98I      -0.702600
     57 OAG         -9.1990     7.4120    21.5600 os         1 98I      -0.243200
     58 OAR         -9.3480     9.6640    19.6950 o          1 98I      -0.552100
     59 OAU         -9.7690     9.2590    15.4310 o          1 98I      -0.532500
     60 OAV         -9.8230    11.1210    17.1170 o          1 98I      -0.532500
     61 OBL         -5.6560     6.8370    14.9360 o          1 98I      -0.431000
     62 OBM         -3.7840     7.3580    15.8030 o          1 98I      -0.431000
     63 OBP          1.9730     8.0150    20.8560 oh         1 98I      -0.659000
     64 SAT         -9.4260     9.7830    16.7390 sy         1 98I       1.202300
     65 H1         -14.0950     6.7620    19.9240 ha         1 98I       0.122000
     66 H2         -12.6170     8.1230    18.6460 ha         1 98I       0.119000
     67 H3         -10.8640     5.9420    22.6810 ha         1 98I       0.133000
     68 H4          -9.1450     5.6310    19.4990 ha         1 98I       0.133000
     69 H5          -6.8920     8.4440    21.8530 h4         1 98I       0.038100
     70 H6          -7.2930     4.3100    17.4450 ha         1 98I       0.213000
     71 H7          -4.6480     4.6620    17.1330 h4         1 98I       0.228000
     72 H8          -7.5530    11.2440    18.4120 ha         1 98I       0.154000
     73 H9          -5.1990    10.9760    18.7850 ha         1 98I       0.129000
     74 H10         -7.5150     8.0030    15.6040 ha         1 98I       0.164000
     75 H11         -2.8920    11.0250    18.4030 h1         1 98I       0.057700
     76 H12         -3.4850     9.9350    19.6540 h1         1 98I       0.057700
     77 H13         -0.9730     9.4770    17.9960 hc         1 98I       0.060700
     78 H14         -1.9270     7.3410    18.7590 hc         1 98I       0.044200
     79 H15         -2.1440     7.9780    20.3770 hc         1 98I       0.044200
     80 H16         -0.1200     6.5450    20.2190 hc         1 98I       0.053450
     81 H17          0.4910     7.5210    18.8910 hc         1 98I       0.053450
     82 H18          1.0830    10.5970    20.9520 hc         1 98I       0.053450
     83 H19          1.2110     9.9350    19.3280 hc         1 98I       0.053450
     84 H20         -0.7470    11.4060    19.4840 hc         1 98I       0.044200
     85 H21         -1.3910    10.4980    20.8330 hc         1 98I       0.044200
     86 H22          0.5610     9.0560    22.8890 hc         1 98I       0.042033
     87 H23         -1.0270     8.7400    22.2090 hc         1 98I       0.042033
     88 H24          0.0470     7.3940    22.5720 hc         1 98I       0.042033
     89 H25        -12.3840     3.9030    23.0800 h1         1 98I       0.044950
     90 H26        -12.2680     5.4430    23.9220 h1         1 98I       0.044950
     91 H27        -13.5570     3.7890    25.1770 hc         1 98I       0.053700
     92 H28        -14.4500     5.2690    24.8660 hc         1 98I       0.053700
     93 H29        -16.1560     5.3700    23.0350 hc         1 98I       0.053700
     94 H30        -16.5120     3.9360    22.0790 hc         1 98I       0.053700
     95 H31        -15.0830     5.4860    20.8670 h1         1 98I       0.044950
     96 H32        -14.3060     3.9270    21.0770 h1         1 98I       0.044950
     97 H33        -16.2790     3.4610    25.6910 hc         1 98I       0.060200
     98 H34        -17.1530     2.8760    24.2580 hc         1 98I       0.060200
     99 H35        -14.6210     1.6450    25.4510 h1         1 98I       0.024700
    100 H36        -15.3120     1.8040    22.4710 hc         1 98I       0.060200
    101 H37        -13.6890     1.9480    23.1660 hc         1 98I       0.060200
    102 H38        -16.3390     0.4290    26.7540 h1         1 98I       0.036700
    103 H39        -17.7620     0.9850    25.8620 h1         1 98I       0.036700
    104 H40        -18.3050    -1.2530    25.1610 hc         1 98I       0.049200
    105 H41        -17.6190    -1.5920    26.7430 hc         1 98I       0.049200
    106 H42        -16.5780    -2.4740    24.2030 hc         1 98I       0.050700
    107 H43        -15.7020    -2.5820    25.7170 hc         1 98I       0.050700
    108 H44        -14.5000    -0.6470    25.3690 h1         1 98I       0.031700
    109 H45        -11.7730    -1.7450    21.6400 ha         1 98I       0.111000
    110 H46        -13.2320    -1.5510    19.6910 ha         1 98I       0.112000
    111 H47        -15.6480    -1.0360    19.9990 ha         1 98I       0.112000
    112 H48        -16.5260    -0.6740    22.2720 ha         1 98I       0.126000
    113 H49        -12.9140    -1.7620    25.1400 hc         1 98I       0.049700
    114 H50        -10.6930    -2.6100    24.9940 hc         1 98I       0.034867
    115 H51        -11.6620    -3.4490    23.7850 hc         1 98I       0.034867
    116 H52        -10.5290    -2.1860    23.3000 hc         1 98I       0.034867
    117 H53        -11.0620    -0.1390    25.4450 hc         1 98I       0.034867
    118 H54        -11.1580     0.3030    23.7380 hc         1 98I       0.034867
    119 H55        -12.5000     0.6690    24.8200 hc         1 98I       0.034867
    120 H56         -3.8800     6.3730    18.7850 hn         1 98I       0.360000
    121 H57        -10.5780     7.8910    17.3870 hn         1 98I       0.348500
    122 H58         -3.0910     8.5370    17.1580 hn         1 98I       0.530000
    123 H60          2.4590     8.5750    21.4710 ho         1 98I       0.442000
@<TRIPOS>BOND
     1     1     2 ar  
     2     1     6 ar  
     3     1    65 1   
     4     2     3 ar  
     5     2    66 1   
     6     3     4 ar  
     7     3    14 1   
     8     4     5 ar  
     9     4    57 1   
    10     5     6 ar  
    11     5    67 1   
    12     6    55 1   
    13     7     8 ar  
    14     7    11 ar  
    15     7    57 1   
    16     8     9 ar  
    17     8    68 1   
    18     9    10 ar  
    19     9    12 1   
    20    10    50 ar  
    21    10    51 1   
    22    11    50 ar  
    23    11    69 1   
    24    12    13 2   
    25    12    70 1   
    26    13    51 1   
    27    13    71 1   
    28    14    52 1   
    29    14    58 2   
    30    15    16 ar  
    31    15    20 ar  
    32    15    64 1   
    33    16    17 ar  
    34    16    72 1   
    35    17    18 ar  
    36    17    73 1   
    37    18    19 ar  
    38    18    54 1   
    39    19    20 ar  
    40    19    53 1   
    41    20    74 1   
    42    21    22 1   
    43    21    54 1   
    44    21    75 1   
    45    21    76 1   
    46    22    23 1   
    47    22    27 1   
    48    22    77 1   
    49    23    24 1   
    50    23    78 1   
    51    23    79 1   
    52    24    25 1   
    53    24    80 1   
    54    24    81 1   
    55    25    26 1   
    56    25    28 1   
    57    25    63 1   
    58    26    27 1   
    59    26    82 1   
    60    26    83 1   
    61    27    84 1   
    62    27    85 1   
    63    28    86 1   
    64    28    87 1   
    65    28    88 1   
    66    29    30 1   
    67    29    55 1   
    68    29    89 1   
    69    29    90 1   
    70    30    31 1   
    71    30    91 1   
    72    30    92 1   
    73    31    32 1   
    74    31    34 1   
    75    31    36 1   
    76    32    33 1   
    77    32    93 1   
    78    32    94 1   
    79    33    55 1   
    80    33    95 1   
    81    33    96 1   
    82    34    35 1   
    83    34    97 1   
    84    34    98 1   
    85    35    36 1   
    86    35    56 1   
    87    35    99 1   
    88    36   100 1   
    89    36   101 1   
    90    37    38 1   
    91    37    56 1   
    92    37   102 1   
    93    37   103 1   
    94    38    39 1   
    95    38   104 1   
    96    38   105 1   
    97    39    40 1   
    98    39   106 1   
    99    39   107 1   
   100    40    41 1   
   101    40    56 1   
   102    40   108 1   
   103    41    42 ar  
   104    41    46 ar  
   105    42    43 ar  
   106    42    47 1   
   107    43    44 ar  
   108    43   109 1   
   109    44    45 ar  
   110    44   110 1   
   111    45    46 ar  
   112    45   111 1   
   113    46   112 1   
   114    47    48 1   
   115    47    49 1   
   116    47   113 1   
   117    48   114 1   
   118    48   115 1   
   119    48   116 1   
   120    49   117 1   
   121    49   118 1   
   122    49   119 1   
   123    51   120 1   
   124    52    64 1   
   125    52   121 1   
   126    53    61 1   
   127    53    62 1   
   128    54   122 1   
   129    59    64 2   
   130    60    64 2   
   131    63   123 1   
@<TRIPOS>SUBSTRUCTURE
     1 98I         1 TEMP              0 ****  ****    0 ROOT
