@<TRIPOS>MOLECULE
98I
  123   131     1     0     0
SMALL
No Charge or Current Charge


@<TRIPOS>ATOM
      1 CAA        -13.2370     7.2260    20.2490 ca         1 98I      -0.206000
      2 CAB        -12.4190     8.2600    19.7660 ca         1 98I      -0.017000
      3 CAC        -11.1410     8.4790    20.3290 ca         1 98I      -0.258600
      4 CAD        -10.7100     7.6300    21.3730 ca         1 98I       0.208100
      5 CAE        -11.5380     6.6060    21.8500 ca         1 98I      -0.222000
      6 CAF        -12.8070     6.3950    21.2930 ca         1 98I       0.375000
      7 CAH         -8.3110     7.4470    21.1840 ca         1 98I       0.049100
      8 CAI         -8.3630     6.7000    19.9870 ca         1 98I      -0.101000
      9 CAJ         -7.1370     6.4710    19.3530 ca         1 98I      -0.110800
     10 CAK         -5.9470     6.9380    19.8660 ca         1 98I       0.338500
     11 CAM         -7.0490     7.8990    21.6480 ca         1 98I       0.357900
     12 CAN         -6.8580     5.7440    18.1530 cc         1 98I      -0.241200
     13 CAO         -5.4850     5.7850    17.9740 cd         1 98I      -0.145100
     14 CAQ        -10.2720     9.6050    19.8370 c          1 98I       0.663700
     15 CAW         -7.8630    10.5620    17.7580 ca         1 98I      -0.385500
     16 CAX         -7.0540    11.0750    18.7820 ca         1 98I       0.097000
     17 CAY         -5.7060    10.7050    18.8440 ca         1 98I      -0.240000
     18 CAZ         -5.1500     9.8320    17.8970 ca         1 98I       0.466000
     19 CBA         -5.9630     9.3060    16.8700 ca         1 98I      -0.314200
     20 CBB         -7.3270     9.6710    16.8130 ca         1 98I       0.113000
     21 CBE         -2.9210     9.6200    19.1680 c3         1 98I       0.216800
     22 CBF         -1.4890     9.0960    18.8600 c6         1 98I      -0.079700
     23 CBG         -1.4600     7.5670    18.5690 c6         1 98I      -0.069400
     24 CBH         -0.0180     7.0710    18.2790 c6         1 98I      -0.084400
     25 CBI          0.9810     7.4110    19.4240 c6         1 98I       0.183000
     26 CBJ          0.9260     8.9370    19.7250 c6         1 98I      -0.084400
     27 CBK         -0.5130     9.4410    20.0200 c6         1 98I      -0.069400
     28 CBO          0.7070     6.5600    20.6990 c3         1 98I      -0.120100
     29 CBQ        -13.5930     4.9070    23.1760 c6         1 98I       0.210300
     30 CBR        -14.9570     4.3370    23.6410 c6         1 98I      -0.068400
     31 CBS        -15.4660     3.2120    22.6860 cy         1 98I      -0.073000
     32 CBT        -15.5010     3.7540    21.2320 c6         1 98I      -0.068400
     33 CBU        -14.1240     4.3180    20.8050 c6         1 98I       0.210300
     34 CBV        -16.7760     2.4800    23.1430 cy         1 98I      -0.078400
     35 CBW        -15.8390     1.4860    23.9160 cy         1 98I       0.159500
     36 CBX        -14.7460     1.8270    22.8420 cy         1 98I      -0.078400
     37 CBZ        -17.4630    -0.0780    24.8830 c5         1 98I       0.157800
     38 CCA        -17.5730    -1.6200    24.9250 c5         1 98I      -0.080400
     39 CCB        -16.0830    -2.0760    25.0260 c5         1 98I      -0.075400
     40 CCC        -15.2700    -0.7890    24.6670 c5         1 98I       0.212800
     41 CCD        -14.1140    -1.2080    23.7350 ca         1 98I      -0.072300
     42 CCE        -12.7510    -1.2270    24.1590 ca         1 98I      -0.064300
     43 CCF        -11.7490    -1.5690    23.2180 ca         1 98I      -0.114000
     44 CCG        -12.0760    -1.9170    21.9000 ca         1 98I      -0.109000
     45 CCH        -13.4140    -1.9270    21.4940 ca         1 98I      -0.121000
     46 CCI        -14.4200    -1.5750    22.4030 ca         1 98I      -0.090000
     47 CCJ        -12.3490    -0.8680    25.6070 c3         1 98I      -0.019400
     48 CCK        -11.0980    -1.6210    26.1240 c3         1 98I      -0.086600
     49 CCL        -12.1820     0.6600    25.7700 c3         1 98I      -0.086600
     50 NAL         -5.8730     7.6480    21.0080 nb         1 98I      -0.668000
     51 NAP         -4.9190     6.5330    19.0380 na         1 98I      -0.329400
     52 NAS        -10.4180     9.9070    18.5230 ns         1 98I      -0.585300
     53 NBC         -5.4460     8.3600    15.8410 no         1 98I       0.713200
     54 NBD         -3.7950     9.5250    17.9890 nu         1 98I      -0.930200
     55 NBN        -13.6500     5.3630    21.7580 nh         1 98I      -0.791400
     56 NBY        -16.2830     0.0750    24.0100 n3         1 98I      -0.702600
     57 OAG         -9.4510     7.7370    21.9110 os         1 98I      -0.243200
     58 OAR         -9.5280    10.2330    20.5730 o          1 98I      -0.552100
     59 OAU        -10.0350    10.8810    16.2640 o          1 98I      -0.532500
     60 OAV         -9.7540    12.3260    18.3570 o          1 98I      -0.532500
     61 OBL         -6.2710     7.6780    15.2210 o          1 98I      -0.431000
     62 OBM         -4.2380     8.3630    15.5720 o          1 98I      -0.431000
     63 OBP          2.2990     7.0800    18.9840 oh         1 98I      -0.659000
     64 SAT         -9.5840    11.0540    17.6470 sy         1 98I       1.202300
     65 H1         -14.2230     7.0820    19.8190 ha         1 98I       0.122000
     66 H2         -12.8020     8.9020    18.9760 ha         1 98I       0.119000
     67 H3         -11.1710     5.9590    22.6390 ha         1 98I       0.133000
     68 H4          -9.2910     6.3100    19.5770 ha         1 98I       0.133000
     69 H5          -6.9790     8.4770    22.5700 h4         1 98I       0.038100
     70 H6          -7.5710     5.2480    17.4970 ha         1 98I       0.213000
     71 H7          -4.8790     5.3510    17.1790 h4         1 98I       0.228000
     72 H8          -7.4560    11.7630    19.5260 ha         1 98I       0.154000
     73 H9          -5.0930    11.1180    19.6360 ha         1 98I       0.129000
     74 H10         -7.9700     9.2770    16.0250 ha         1 98I       0.164000
     75 H11         -2.8450    10.6690    19.4850 h1         1 98I       0.057700
     76 H12         -3.3430     9.0460    20.0060 h1         1 98I       0.057700
     77 H13         -1.1480     9.6340    17.9630 hc         1 98I       0.060700
     78 H14         -2.0960     7.3320    17.7050 hc         1 98I       0.044200
     79 H15         -1.8810     7.0140    19.4190 hc         1 98I       0.044200
     80 H16         -0.0300     5.9870    18.1000 hc         1 98I       0.053450
     81 H17          0.3310     7.5280    17.3420 hc         1 98I       0.053450
     82 H18          1.5800     9.1810    20.5730 hc         1 98I       0.053450
     83 H19          1.3250     9.4940    18.8650 hc         1 98I       0.053450
     84 H20         -0.4890    10.5290    20.1730 hc         1 98I       0.044200
     85 H21         -0.8790     9.0100    20.9620 hc         1 98I       0.044200
     86 H22          1.4290     6.7870    21.4930 hc         1 98I       0.042033
     87 H23         -0.2920     6.7380    21.1120 hc         1 98I       0.042033
     88 H24          0.7820     5.4870    20.4830 hc         1 98I       0.042033
     89 H25        -12.8170     4.1360    23.2930 h1         1 98I       0.044950
     90 H26        -13.3260     5.7460    23.8360 h1         1 98I       0.044950
     91 H27        -14.8630     3.9820    24.6750 hc         1 98I       0.053700
     92 H28        -15.6920     5.1530    23.6670 hc         1 98I       0.053700
     93 H29        -16.2560     4.5480    21.1500 hc         1 98I       0.053700
     94 H30        -15.8060     2.9660    20.5300 hc         1 98I       0.053700
     95 H31        -14.2120     4.7270    19.7880 h1         1 98I       0.044950
     96 H32        -13.3940     3.4970    20.7610 h1         1 98I       0.044950
     97 H33        -17.4660     3.0630    23.7620 hc         1 98I       0.060200
     98 H34        -17.3460     2.0140    22.3310 hc         1 98I       0.060200
     99 H35        -15.5710     1.8730    24.9070 h1         1 98I       0.024700
    100 H36        -14.7840     1.1950    21.9480 hc         1 98I       0.060200
    101 H37        -13.7130     1.8510    23.2020 hc         1 98I       0.060200
    102 H38        -17.2870     0.3390    25.8860 h1         1 98I       0.036700
    103 H39        -18.3640     0.3910    24.4650 h1         1 98I       0.036700
    104 H40        -18.0360    -2.0000    24.0070 hc         1 98I       0.049200
    105 H41        -18.1810    -1.9710    25.7660 hc         1 98I       0.049200
    106 H42        -15.8870    -2.9140    24.3480 hc         1 98I       0.050700
    107 H43        -15.8300    -2.4210    26.0350 hc         1 98I       0.050700
    108 H44        -14.9210    -0.3010    25.5850 h1         1 98I       0.031700
    109 H45        -10.6990    -1.5640    23.4960 ha         1 98I       0.111000
    110 H46        -11.2910    -2.1790    21.1950 ha         1 98I       0.112000
    111 H47        -13.6730    -2.1990    20.4730 ha         1 98I       0.112000
    112 H48        -15.4540    -1.5720    22.0680 ha         1 98I       0.126000
    113 H49        -13.1480    -1.1860    26.2850 hc         1 98I       0.049700
    114 H50        -10.9870    -1.4770    27.2050 hc         1 98I       0.034867
    115 H51        -11.1880    -2.6970    25.9350 hc         1 98I       0.034867
    116 H52        -10.1800    -1.2560    25.6480 hc         1 98I       0.034867
    117 H53        -11.9300     0.9140    26.8060 hc         1 98I       0.034867
    118 H54        -11.3820     1.0330    25.1190 hc         1 98I       0.034867
    119 H55        -13.1060     1.1860    25.5090 hc         1 98I       0.034867
    120 H56         -3.9430     6.7540    19.1750 hn         1 98I       0.360000
    121 H57        -10.9990     9.3360    17.9370 hn         1 98I       0.348500
    122 H58         -3.4310     9.0210    17.1780 hn         1 98I       0.530000
    123 H60          2.9000     7.2660    19.7360 ho         1 98I       0.442000
@<TRIPOS>BOND
     1     1     2 ar  
     2     1     6 ar  
     3     1    65 1   
     4     2     3 ar  
     5     2    66 1   
     6     3     4 ar  
     7     3    14 1   
     8     4     5 ar  
     9     4    57 1   
    10     5     6 ar  
    11     5    67 1   
    12     6    55 1   
    13     7     8 ar  
    14     7    11 ar  
    15     7    57 1   
    16     8     9 ar  
    17     8    68 1   
    18     9    10 ar  
    19     9    12 1   
    20    10    50 ar  
    21    10    51 1   
    22    11    50 ar  
    23    11    69 1   
    24    12    13 2   
    25    12    70 1   
    26    13    51 1   
    27    13    71 1   
    28    14    52 1   
    29    14    58 2   
    30    15    16 ar  
    31    15    20 ar  
    32    15    64 1   
    33    16    17 ar  
    34    16    72 1   
    35    17    18 ar  
    36    17    73 1   
    37    18    19 ar  
    38    18    54 1   
    39    19    20 ar  
    40    19    53 1   
    41    20    74 1   
    42    21    22 1   
    43    21    54 1   
    44    21    75 1   
    45    21    76 1   
    46    22    23 1   
    47    22    27 1   
    48    22    77 1   
    49    23    24 1   
    50    23    78 1   
    51    23    79 1   
    52    24    25 1   
    53    24    80 1   
    54    24    81 1   
    55    25    26 1   
    56    25    28 1   
    57    25    63 1   
    58    26    27 1   
    59    26    82 1   
    60    26    83 1   
    61    27    84 1   
    62    27    85 1   
    63    28    86 1   
    64    28    87 1   
    65    28    88 1   
    66    29    30 1   
    67    29    55 1   
    68    29    89 1   
    69    29    90 1   
    70    30    31 1   
    71    30    91 1   
    72    30    92 1   
    73    31    32 1   
    74    31    34 1   
    75    31    36 1   
    76    32    33 1   
    77    32    93 1   
    78    32    94 1   
    79    33    55 1   
    80    33    95 1   
    81    33    96 1   
    82    34    35 1   
    83    34    97 1   
    84    34    98 1   
    85    35    36 1   
    86    35    56 1   
    87    35    99 1   
    88    36   100 1   
    89    36   101 1   
    90    37    38 1   
    91    37    56 1   
    92    37   102 1   
    93    37   103 1   
    94    38    39 1   
    95    38   104 1   
    96    38   105 1   
    97    39    40 1   
    98    39   106 1   
    99    39   107 1   
   100    40    41 1   
   101    40    56 1   
   102    40   108 1   
   103    41    42 ar  
   104    41    46 ar  
   105    42    43 ar  
   106    42    47 1   
   107    43    44 ar  
   108    43   109 1   
   109    44    45 ar  
   110    44   110 1   
   111    45    46 ar  
   112    45   111 1   
   113    46   112 1   
   114    47    48 1   
   115    47    49 1   
   116    47   113 1   
   117    48   114 1   
   118    48   115 1   
   119    48   116 1   
   120    49   117 1   
   121    49   118 1   
   122    49   119 1   
   123    51   120 1   
   124    52    64 1   
   125    52   121 1   
   126    53    61 1   
   127    53    62 1   
   128    54   122 1   
   129    59    64 2   
   130    60    64 2   
   131    63   123 1   
@<TRIPOS>SUBSTRUCTURE
     1 98I         1 TEMP              0 ****  ****    0 ROOT
