@<TRIPOS>MOLECULE
98J
   16    15     1     0     0
SMALL
bcc


@<TRIPOS>ATOM
      1 C12         -1.7770    -0.2350     0.6310 c          1 98J       0.944600
      2 O1           0.3810     0.8300    -1.5500 o          1 98J      -0.587100
      3 O14         -1.1760     0.6480     1.2720 o          1 98J      -0.829800
      4 O13         -2.9080    -0.6970     0.8510 o          1 98J      -0.829800
      5 C3          -1.0180    -0.8340    -0.5860 c3         1 98J      -0.331400
      6 C2           0.2790    -0.1090    -0.7870 c          1 98J       0.624100
      7 C9           1.4530    -0.6230     0.0030 c3         1 98J      -0.184400
      8 C10          2.6340     0.3230     0.0460 c3         1 98J       0.144400
      9 O11          3.6580    -0.2910     0.8010 oh         1 98J      -0.613800
     10 H31C        -0.8440    -1.8980    -0.3980 hc         1 98J       0.043700
     11 H32C        -1.6410    -0.7550    -1.4790 hc         1 98J       0.043700
     12 H91C         1.1140    -0.8690     1.0120 hc         1 98J       0.067700
     13 H92C         1.7470    -1.5770    -0.4530 hc         1 98J       0.067700
     14 H101         2.9690     0.5460    -0.9730 h1         1 98J       0.026700
     15 H102         2.3220     1.2740     0.4950 h1         1 98J       0.026700
     16 H11          4.4140     0.3020     0.8140 ho         1 98J       0.385000
@<TRIPOS>BOND
     1     1     3 1   
     2     1     4 1   
     3     1     5 1   
     4     2     6 2   
     5     5     6 1   
     6     5    10 1   
     7     5    11 1   
     8     6     7 1   
     9     7     8 1   
    10     7    12 1   
    11     7    13 1   
    12     8     9 1   
    13     8    14 1   
    14     8    15 1   
    15     9    16 1   
@<TRIPOS>SUBSTRUCTURE
     1 98J         1 TEMP              0 ****  ****    0 ROOT
