@<TRIPOS>MOLECULE
98J
   16    15     1     0     0
SMALL
No Charge or Current Charge


@<TRIPOS>ATOM
      1 C12         -1.4360     0.1490     0.5960 c          1 98J       0.734000
      2 O1           0.0930    -0.0660    -2.0540 o          1 98J      -0.587100
      3 O14         -0.9370     0.3680     1.6860 o          1 98J      -0.724500
      4 O13         -2.2460     0.8850     0.0570 o          1 98J      -0.724500
      5 C3          -0.9700    -1.0720    -0.1580 c3         1 98J      -0.331400
      6 C2           0.2330    -0.6080    -0.9640 c          1 98J       0.624100
      7 C9           1.6320    -0.8910    -0.4040 c3         1 98J      -0.184400
      8 C10          2.2640     0.3940     0.1500 c3         1 98J       0.167600
      9 O11          3.5820     0.1020     0.6220 oh         1 98J      -0.676000
     10 H31C        -0.6250    -1.8290     0.5540 hc         1 98J       0.043700
     11 H32C        -1.7320    -1.3880    -0.8810 hc         1 98J       0.043700
     12 H91C         1.5810    -1.6230     0.4100 hc         1 98J       0.067700
     13 H92C         2.2660    -1.2700    -1.2130 hc         1 98J       0.067700
     14 H101         2.3030     1.1540    -0.6420 h1         1 98J       0.026700
     15 H102         1.6450     0.7880     0.9670 h1         1 98J       0.026700
     16 H11          3.9530     0.9420     0.9740 ho         1 98J       0.424000
@<TRIPOS>BOND
     1     1     3 1   
     2     1     4 1   
     3     1     5 1   
     4     2     6 2   
     5     5     6 1   
     6     5    10 1   
     7     5    11 1   
     8     6     7 1   
     9     7     8 1   
    10     7    12 1   
    11     7    13 1   
    12     8     9 1   
    13     8    14 1   
    14     8    15 1   
    15     9    16 1   
@<TRIPOS>SUBSTRUCTURE
     1 98J         1 TEMP              0 ****  ****    0 ROOT
