@<TRIPOS>MOLECULE
98K
   15    16     1     0     0
SMALL
No Charge or Current Charge


@<TRIPOS>ATOM
      1 Cl         185.4500   283.2560   106.9150 cl         1 98K      -0.053300
      2 C02        185.6910   283.9480   108.4900 cc         1 98K       0.456800
      3 N03        185.2590   285.2220   108.8380 na         1 98K      -0.315600
      4 C04        185.6200   285.4160   110.1350 ca         1 98K      -0.072200
      5 C05        185.4280   286.5220   110.9710 ca         1 98K      -0.115000
      6 C06        185.9200   286.4320   112.2910 ca         1 98K      -0.089000
      7 C07        186.5780   285.2560   112.7280 ca         1 98K      -0.133000
      8 C08        186.7500   284.1620   111.8490 ca         1 98K      -0.044000
      9 C09        186.2540   284.2750   110.5420 ca         1 98K       0.068400
     10 N10        186.3100   283.3320   109.5170 nd         1 98K      -0.552100
     11 H1         184.7720   285.8670   108.2300 hn         1 98K       0.367000
     12 H2         184.9200   287.4170   110.6190 ha         1 98K       0.119000
     13 H3         185.7920   287.2690   112.9740 ha         1 98K       0.114000
     14 H4         186.9550   285.1940   113.7460 ha         1 98K       0.116000
     15 H5         187.2540   283.2560   112.1760 ha         1 98K       0.132000
@<TRIPOS>BOND
     1     1     2 1   
     2     2     3 1   
     3     2    10 2   
     4     3     4 1   
     5     3    11 1   
     6     4     5 ar  
     7     4     9 ar  
     8     5     6 ar  
     9     5    12 1   
    10     6     7 ar  
    11     6    13 1   
    12     7     8 ar  
    13     7    14 1   
    14     8     9 ar  
    15     8    15 1   
    16     9    10 1   
@<TRIPOS>SUBSTRUCTURE
     1 98K         1 TEMP              0 ****  ****    0 ROOT
