@<TRIPOS>MOLECULE
98K
   15    16     1     0     0
SMALL
bcc


@<TRIPOS>ATOM
      1 CL         185.4600   283.2970   106.9930 cl         1 98K      -0.053300
      2 C02        185.7010   283.9610   108.5390 cc         1 98K       0.456800
      3 N03        185.2620   285.2070   108.8290 na         1 98K      -0.265300
      4 C04        185.6090   285.4410   110.1350 ca         1 98K      -0.072200
      5 C05        185.4250   286.5310   110.9760 ca         1 98K      -0.133000
      6 C06        185.9200   286.4090   112.2620 ca         1 98K      -0.107000
      7 C07        186.5720   285.2430   112.6920 ca         1 98K      -0.151000
      8 C08        186.7500   284.1620   111.8470 ca         1 98K      -0.062000
      9 C09        186.2580   284.2660   110.5480 ca         1 98K       0.068400
     10 N10        186.2960   283.3560   109.5140 nd         1 98K      -0.552100
     11 H1         184.7810   285.8340   108.2010 hn         1 98K       0.316700
     12 H2         184.9220   287.4300   110.6450 ha         1 98K       0.137000
     13 H3         185.8010   287.2320   112.9540 ha         1 98K       0.132000
     14 H4         186.9430   285.1920   113.7070 ha         1 98K       0.134000
     15 H5         187.2550   283.2640   112.1800 ha         1 98K       0.150000
@<TRIPOS>BOND
     1     1     2 1   
     2     2     3 1   
     3     2    10 2   
     4     3     4 1   
     5     3    11 1   
     6     4     5 ar  
     7     4     9 ar  
     8     5     6 ar  
     9     5    12 1   
    10     6     7 ar  
    11     6    13 1   
    12     7     8 ar  
    13     7    14 1   
    14     8     9 ar  
    15     8    15 1   
    16     9    10 1   
@<TRIPOS>SUBSTRUCTURE
     1 98K         1 TEMP              0 ****  ****    0 ROOT
