@<TRIPOS>MOLECULE
98L
   39    42     1     0     0
SMALL
bcc


@<TRIPOS>ATOM
      1 N1           0.9520     7.0450    -3.7710 nb         1 98L      -0.705000
      2 N3           3.7020     4.6770    -5.6880 nu         1 98L      -0.856900
      3 C4           1.6920     2.6510    -7.1670 ca         1 98L      -0.118000
      4 C5           1.3970     2.5130    -5.8100 ca         1 98L      -0.052800
      5 C6           1.6370     1.2920    -5.1840 ca         1 98L      -0.118000
      6 C7           0.8250     3.6430    -5.0510 cc         1 98L       0.009600
      7 C8           0.6370     5.7930    -4.1180 ca         1 98L       0.491600
      8 C10          2.1500     7.3870    -4.1530 ca         1 98L       0.803000
      9 C13          5.0440     5.1460    -5.9740 c3         1 98L       0.272100
     10 C15          6.8050     3.5300    -6.7290 ca         1 98L      -0.209000
     11 C17          6.8490     2.6660    -8.9770 ca         1 98L      -0.155000
     12 C1           2.1690     0.2280    -5.9010 ca         1 98L      -0.128000
     13 C11          2.7600     5.4150    -5.1040 ca         1 98L       0.772200
     14 C12         -0.4160     3.6040    -4.5040 cd         1 98L      -0.136400
     15 C14          5.6740     4.2770    -7.0290 ca         1 98L      -0.076300
     16 C16          7.4010     2.7260    -7.7000 ca         1 98L       0.139100
     17 C18          5.7160     3.4100    -9.2680 ca         1 98L      -0.096000
     18 C19          5.1230     4.2150    -8.3060 ca         1 98L      -0.149000
     19 C2           2.4660     0.3750    -7.2490 ca         1 98L      -0.120000
     20 C3           2.2240     1.5880    -7.8810 ca         1 98L      -0.128000
     21 C9           1.4570     4.9120    -4.8150 ca         1 98L      -0.365400
     22 N2           3.0650     6.6720    -4.7710 nb         1 98L      -0.810000
     23 O1           8.5020     1.9900    -7.4550 oh         1 98L      -0.493100
     24 S1          -0.8780     5.0710    -3.7200 ss         1 98L      -0.070900
     25 CL1          2.6210     9.0130    -3.7740 cl         1 98L      -0.136000
     26 H1           3.5180     3.6980    -5.8390 hn         1 98L       0.458800
     27 H3           1.4180     1.1790    -4.1300 ha         1 98L       0.139000
     28 H4           5.6550     5.1480    -5.0670 h1         1 98L       0.068700
     29 H5           4.9870     6.1780    -6.3220 h1         1 98L       0.068700
     30 H6           7.2280     3.5750    -5.7300 ha         1 98L       0.133000
     31 H7           7.3090     2.0420    -9.7330 ha         1 98L       0.149000
     32 H8           2.3560    -0.7140    -5.4030 ha         1 98L       0.135000
     33 H9          -1.1120     2.7790    -4.5460 h4         1 98L       0.174000
     34 H10          5.2930     3.3610   -10.2640 ha         1 98L       0.135000
     35 H11          4.2390     4.7910    -8.5480 ha         1 98L       0.140000
     36 H12          2.8850    -0.4530    -7.8060 ha         1 98L       0.135000
     37 H13          2.4500     1.7080    -8.9330 ha         1 98L       0.135000
     38 H14          8.7980     2.1130    -6.5460 ho         1 98L       0.428000
     39 H2           1.4990     3.5940    -7.6660 ha         1 98L       0.139000
@<TRIPOS>BOND
     1     1     7 ar  
     2     1     8 ar  
     3     2     9 1   
     4     2    13 1   
     5     2    26 1   
     6     3     4 ar  
     7     3    20 ar  
     8     3    39 1   
     9     4     5 ar  
    10     4     6 1   
    11     5    12 ar  
    12     5    27 1   
    13     6    14 2   
    14     6    21 1   
    15     7    21 ar  
    16     7    24 1   
    17     8    22 ar  
    18     8    25 1   
    19     9    15 1   
    20     9    28 1   
    21     9    29 1   
    22    10    15 ar  
    23    10    16 ar  
    24    10    30 1   
    25    11    16 ar  
    26    11    17 ar  
    27    11    31 1   
    28    12    19 ar  
    29    12    32 1   
    30    13    21 ar  
    31    13    22 ar  
    32    14    24 1   
    33    14    33 1   
    34    15    18 ar  
    35    16    23 1   
    36    17    18 ar  
    37    17    34 1   
    38    18    35 1   
    39    19    20 ar  
    40    19    36 1   
    41    20    37 1   
    42    23    38 1   
@<TRIPOS>SUBSTRUCTURE
     1 98L         1 TEMP              0 ****  ****    0 ROOT
