@<TRIPOS>MOLECULE
98L
   39    42     1     0     0
SMALL
No Charge or Current Charge


@<TRIPOS>ATOM
      1 N1           0.8380     6.9380    -3.5110 nb         1 98L      -0.179000
      2 N3           3.6520     4.9230    -5.7940 nu         1 98L      -0.912100
      3 C4           1.9090     2.8230    -7.1500 ca         1 98L      -0.100000
      4 C5           1.7020     2.5990    -5.7750 ca         1 98L      -0.052800
      5 C6           2.1660     1.4050    -5.1910 ca         1 98L      -0.100000
      6 C7           1.0500     3.6140    -4.9540 cc         1 98L       0.009600
      7 C8           0.6120     5.6710    -3.9000 ca         1 98L       0.163300
      8 C10          2.0080     7.4700    -3.9320 ca         1 98L       0.277000
      9 C13          4.8980     5.4310    -6.3690 c3         1 98L       0.272100
     10 C15          6.1460     3.2330    -6.6680 ca         1 98L      -0.191000
     11 C17          6.4900     2.2580    -8.8700 ca         1 98L      -0.137000
     12 C1           2.8450     0.4520    -5.9710 ca         1 98L      -0.110000
     13 C11          2.7000     5.5920    -5.0480 ca         1 98L       0.443900
     14 C12         -0.1680     3.3380    -4.3610 cd         1 98L      -0.186400
     15 C14          5.4850     4.3350    -7.2500 ca         1 98L      -0.076300
     16 C16          6.6460     2.2000    -7.4780 ca         1 98L       0.139100
     17 C18          5.8300     3.3510    -9.4580 ca         1 98L      -0.078000
     18 C19          5.3280     4.3850    -8.6500 ca         1 98L      -0.131000
     19 C2           3.0640     0.6890    -7.3390 ca         1 98L      -0.102000
     20 C3           2.5930     1.8730    -7.9290 ca         1 98L      -0.110000
     21 C9           1.5050     4.9610    -4.6760 ca         1 98L      -0.234800
     22 N2           2.9570     6.8600    -4.6800 nb         1 98L      -0.284000
     23 O1           7.2820     1.1350    -6.9130 oh         1 98L      -0.532100
     24 S1          -0.8300     4.7340    -3.4530 ss         1 98L      -0.070900
     25 Cl1          2.3380     9.1250    -3.4480 cl         1 98L      -0.136000
     26 H1           3.3950     3.9690    -6.0450 hn         1 98L       0.514000
     27 H3           2.0140     1.2240    -4.1290 ha         1 98L       0.121000
     28 H4           5.6110     5.7000    -5.5770 h1         1 98L       0.068700
     29 H5           4.7070     6.3300    -6.9720 h1         1 98L       0.068700
     30 H6           6.2570     3.1830    -5.5880 ha         1 98L       0.115000
     31 H7           6.8760     1.4560    -9.4940 ha         1 98L       0.131000
     32 H8           3.2090    -0.4650    -5.5130 ha         1 98L       0.117000
     33 H9          -0.7310     2.4120    -4.4160 h4         1 98L       0.224000
     34 H10          5.7040     3.3940   -10.5380 ha         1 98L       0.117000
     35 H11          4.8070     5.2210    -9.1110 ha         1 98L       0.122000
     36 H12          3.5970    -0.0440    -7.9400 ha         1 98L       0.117000
     37 H13          2.7610     2.0580    -8.9880 ha         1 98L       0.117000
     38 H14          7.2940     1.2640    -5.9410 ho         1 98L       0.467000
     39 H2           1.5500     3.7410    -7.6120 ha         1 98L       0.121000
@<TRIPOS>BOND
     1     1     7 ar  
     2     1     8 ar  
     3     2     9 1   
     4     2    13 1   
     5     2    26 1   
     6     3     4 ar  
     7     3    20 ar  
     8     3    39 1   
     9     4     5 ar  
    10     4     6 1   
    11     5    12 ar  
    12     5    27 1   
    13     6    14 2   
    14     6    21 1   
    15     7    21 ar  
    16     7    24 1   
    17     8    22 ar  
    18     8    25 1   
    19     9    15 1   
    20     9    28 1   
    21     9    29 1   
    22    10    15 ar  
    23    10    16 ar  
    24    10    30 1   
    25    11    16 ar  
    26    11    17 ar  
    27    11    31 1   
    28    12    19 ar  
    29    12    32 1   
    30    13    21 ar  
    31    13    22 ar  
    32    14    24 1   
    33    14    33 1   
    34    15    18 ar  
    35    16    23 1   
    36    17    18 ar  
    37    17    34 1   
    38    18    35 1   
    39    19    20 ar  
    40    19    36 1   
    41    20    37 1   
    42    23    38 1   
@<TRIPOS>SUBSTRUCTURE
     1 98L         1 TEMP              0 ****  ****    0 ROOT
