@<TRIPOS>MOLECULE
98N
   73    76     1     0     0
SMALL
bcc


@<TRIPOS>ATOM
      1 C1          -1.1980    -0.3800    -0.2140 ca         1 98N      -0.221600
      2 C2          -0.9400     0.9550     0.0720 ca         1 98N       0.425600
      3 C11         -2.5670     2.7740     0.8890 c3         1 98N      -0.041700
      4 C12         -2.6920     2.0920     2.2440 c3         1 98N      -0.086100
      5 C13         -1.6490     3.9900     0.9480 c3         1 98N      -0.086100
      6 C16          4.2240    -2.2200     1.8430 c3         1 98N       0.042700
      7 C17          5.3090    -1.5680     1.0140 ca         1 98N       0.441600
      8 C19          5.9050     0.0290    -0.5020 ca         1 98N       0.510200
      9 C20          7.2320    -0.3670    -0.4610 ca         1 98N      -0.400800
     10 C21          7.6030    -1.4270     0.3580 ca         1 98N       0.010000
     11 C22          6.6180    -2.0380     1.1070 ca         1 98N      -0.263300
     12 C24          9.0020     1.8080    -0.3840 c3         1 98N      -0.183600
     13 C25         10.0600     2.6380    -1.0910 c3         1 98N      -0.072100
     14 C28         -4.2510     1.1610    -1.3320 c3         1 98N       0.192800
     15 C29         -5.5100     0.3210    -1.1440 c6         1 98N      -0.064700
     16 C30         -6.0670     0.4530     0.2690 c6         1 98N      -0.069400
     17 N3           0.2240     1.4070     0.5030 nb         1 98N      -0.656000
     18 C4           1.1810     0.5060     0.7010 ca         1 98N       0.426200
     19 C5           1.0210    -0.8570     0.4690 ca         1 98N      -0.269900
     20 C6          -0.2000    -1.3100    -0.0310 ca         1 98N      -0.025000
     21 C7           2.1460    -1.8170     0.6500 c          1 98N       0.696700
     22 C8          -2.5850    -0.5170    -0.7420 c5         1 98N       0.236100
     23 N9          -3.1810     0.7770    -0.4450 n3         1 98N      -0.768600
     24 C10         -2.1540     1.7910    -0.2190 c5         1 98N       0.150200
     25 O14          2.3010    -2.7590    -0.1120 o          1 98N      -0.587100
     26 N15          2.9470    -1.5860     1.7060 ns         1 98N      -0.549900
     27 N18          4.9660    -0.5600     0.2250 nb         1 98N      -0.688000
     28 S23          8.4390     0.4770    -1.4420 sy         1 98N       1.083300
     29 O26          9.5560    -0.4380    -1.6720 o          1 98N      -0.587800
     30 O27          7.7600     1.0620    -2.5960 o          1 98N      -0.587800
     31 C31         -7.3550    -0.3390     0.4590 c6         1 98N      -0.070900
     32 C32         -8.4040     0.0860    -0.5720 c6         1 98N      -0.131700
     33 C33         -7.8580    -0.0820    -1.9930 c6         1 98N      -0.070900
     34 C34         -6.5700     0.7150    -2.1690 c6         1 98N      -0.069400
     35 C35         -9.7070    -0.6500    -0.3830 c3         1 98N       0.660900
     36 F36        -10.2260    -0.4650     0.8430 f          1 98N      -0.240967
     37 F37        -10.6500    -0.2520    -1.2540 f          1 98N      -0.240967
     38 F38         -9.5820    -1.9790    -0.5430 f          1 98N      -0.240967
     39 H1          -3.5630     3.1350     0.6060 hc         1 98N       0.043700
     40 H2          -1.7210     1.7690     2.6260 hc         1 98N       0.037367
     41 H3          -3.1220     2.7740     2.9800 hc         1 98N       0.037367
     42 H4          -3.3390     1.2170     2.1820 hc         1 98N       0.037367
     43 H5          -1.5620     4.4710    -0.0290 hc         1 98N       0.037367
     44 H6          -2.0410     4.7320     1.6450 hc         1 98N       0.037367
     45 H7          -0.6450     3.7190     1.2740 hc         1 98N       0.037367
     46 H8           4.1490    -3.2730     1.5700 h1         1 98N       0.076700
     47 H9           4.5150    -2.1950     2.8940 h1         1 98N       0.076700
     48 H10          5.5830     0.8450    -1.1380 h4         1 98N       0.045100
     49 H11          8.6270    -1.7690     0.4100 ha         1 98N       0.162000
     50 H12          6.8570    -2.8690     1.7570 ha         1 98N       0.150000
     51 H13          9.3850     1.3500     0.5290 h1         1 98N       0.093700
     52 H14          8.1220     2.4010    -0.1300 h1         1 98N       0.093700
     53 H15         10.9480     2.0510    -1.3160 hc         1 98N       0.055033
     54 H16          9.6810     3.0750    -2.0130 hc         1 98N       0.055033
     55 H17         10.3580     3.4560    -0.4360 hc         1 98N       0.055033
     56 H18         -3.9320     1.1100    -2.3890 h1         1 98N       0.033200
     57 H19         -4.5070     2.2070    -1.1350 h1         1 98N       0.033200
     58 H20         -5.2610    -0.7350    -1.3180 hc         1 98N       0.049700
     59 H21         -5.3210     0.1270     0.9950 hc         1 98N       0.048200
     60 H22         -6.2580     1.5130     0.4760 hc         1 98N       0.048200
     61 H23          2.1380     0.8970     1.0300 h4         1 98N       0.024100
     62 H24         -0.3520    -2.3600    -0.2530 ha         1 98N       0.159000
     63 H25         -2.5560    -0.7300    -1.8240 h1         1 98N       0.051700
     64 H26         -3.1360    -1.3390    -0.2750 h1         1 98N       0.051700
     65 H28         -1.9540     2.3800    -1.1340 h1         1 98N       0.051700
     66 H29          2.7700    -0.7840     2.2890 hn         1 98N       0.318500
     67 H30         -7.1410    -1.4070     0.3510 hc         1 98N       0.055450
     68 H31         -7.7260    -0.1880     1.4740 hc         1 98N       0.055450
     69 H32         -8.6270     1.1490    -0.4130 hc         1 98N       0.080700
     70 H33         -7.6550    -1.1400    -2.1870 hc         1 98N       0.055450
     71 H34         -8.5930     0.2430    -2.7310 hc         1 98N       0.055450
     72 H35         -6.7900     1.7850    -2.0720 hc         1 98N       0.048200
     73 H36         -6.1890     0.5650    -3.1820 hc         1 98N       0.048200
@<TRIPOS>BOND
     1     1     2 ar  
     2     1    20 ar  
     3     1    22 1   
     4     2    17 ar  
     5     2    24 1   
     6     3     4 1   
     7     3     5 1   
     8     3    24 1   
     9     3    39 1   
    10     4    40 1   
    11     4    41 1   
    12     4    42 1   
    13     5    43 1   
    14     5    44 1   
    15     5    45 1   
    16     6     7 1   
    17     6    26 1   
    18     6    46 1   
    19     6    47 1   
    20     7    11 ar  
    21     7    27 ar  
    22     8     9 ar  
    23     8    27 ar  
    24     8    48 1   
    25     9    10 ar  
    26     9    28 1   
    27    10    11 ar  
    28    10    49 1   
    29    11    50 1   
    30    12    13 1   
    31    12    28 1   
    32    12    51 1   
    33    12    52 1   
    34    13    53 1   
    35    13    54 1   
    36    13    55 1   
    37    14    15 1   
    38    14    23 1   
    39    14    56 1   
    40    14    57 1   
    41    15    16 1   
    42    15    34 1   
    43    15    58 1   
    44    16    31 1   
    45    16    59 1   
    46    16    60 1   
    47    17    18 ar  
    48    18    19 ar  
    49    18    61 1   
    50    19    20 ar  
    51    19    21 1   
    52    20    62 1   
    53    21    25 2   
    54    21    26 1   
    55    22    23 1   
    56    22    63 1   
    57    22    64 1   
    58    23    24 1   
    59    24    65 1   
    60    26    66 1   
    61    28    29 2   
    62    28    30 2   
    63    31    32 1   
    64    31    67 1   
    65    31    68 1   
    66    32    33 1   
    67    32    35 1   
    68    32    69 1   
    69    33    34 1   
    70    33    70 1   
    71    33    71 1   
    72    34    72 1   
    73    34    73 1   
    74    35    36 1   
    75    35    37 1   
    76    35    38 1   
@<TRIPOS>SUBSTRUCTURE
     1 98N         1 TEMP              0 ****  ****    0 ROOT
