@<TRIPOS>MOLECULE
98N
   73    76     1     0     0
SMALL
No Charge or Current Charge


@<TRIPOS>ATOM
      1 C1          -1.5580    -0.3480    -0.8700 ca         1 98N      -0.156300
      2 C2          -1.2100     0.9850    -0.9110 ca         1 98N       0.360300
      3 C11         -2.5440     3.1550    -0.2470 c3         1 98N      -0.041700
      4 C12         -2.3410     2.9560     1.2750 c3         1 98N      -0.086100
      5 C13         -1.6100     4.2610    -0.7960 c3         1 98N      -0.086100
      6 C16          4.3680    -2.2880    -0.3740 c3         1 98N       0.042700
      7 C17          5.6830    -1.5020    -0.3200 ca         1 98N       0.376300
      8 C19          6.7600     0.5600    -0.3690 ca         1 98N       0.444900
      9 C20          8.0100    -0.0480    -0.2310 ca         1 98N      -0.335500
     10 C21          8.0980    -1.4470    -0.1300 ca         1 98N       0.028000
     11 C22          6.9050    -2.1810    -0.1780 ca         1 98N      -0.180000
     12 C24          9.6120     1.3710     1.5890 c3         1 98N      -0.294400
     13 C25         10.8260     2.2760     1.9150 c3         1 98N      -0.072100
     14 C28         -4.9430     1.1510    -1.2410 c3         1 98N       0.192800
     15 C29         -6.0830     0.2360    -0.6990 c6         1 98N      -0.064700
     16 C30         -6.2150     0.3220     0.8480 c6         1 98N      -0.069400
     17 N3           0.0750     1.4120    -0.8670 nb         1 98N      -0.656000
     18 C4           1.0390     0.4670    -0.7500 ca         1 98N       0.360900
     19 C5           0.7690    -0.9190    -0.6860 ca         1 98N      -0.204600
     20 C6          -0.5780    -1.3400    -0.7530 ca         1 98N      -0.007000
     21 C7           1.8720    -1.9300    -0.5580 c          1 98N       0.629700
     22 C8          -3.0480    -0.5230    -0.9870 c5         1 98N       0.236100
     23 N9          -3.5930     0.8510    -0.7090 n3         1 98N      -0.768600
     24 C10         -2.4820     1.8210    -1.0610 c5         1 98N       0.150200
     25 O14          1.6450    -3.1310    -0.5080 o          1 98N      -0.587100
     26 N15          3.1610    -1.4490    -0.4990 ns         1 98N      -0.482900
     27 N18          5.6090    -0.1510    -0.4130 nb         1 98N      -0.688000
     28 S23          9.4570     0.9870    -0.1730 sy         1 98N       1.052500
     29 O26         10.6250     0.1760    -0.5380 o          1 98N      -0.517000
     30 O27          9.1600     2.2490    -0.8610 o          1 98N      -0.517000
     31 C31         -7.3570    -0.5830     1.3740 c6         1 98N      -0.070900
     32 C32         -8.7190    -0.2390     0.7000 c6         1 98N      -0.131700
     33 C33         -8.5830    -0.3230    -0.8500 c6         1 98N      -0.070900
     34 C34         -7.4400     0.5830    -1.3700 c6         1 98N      -0.069400
     35 C35         -9.8910    -1.1170     1.2440 c3         1 98N       0.297000
     36 F36        -10.0300    -0.9880     2.5840 f          1 98N      -0.119667
     37 F37        -11.0750    -0.7660     0.6900 f          1 98N      -0.119667
     38 F38         -9.7010    -2.4320     0.9860 f          1 98N      -0.119667
     39 H1          -3.5570     3.5570    -0.3670 hc         1 98N       0.043700
     40 H2          -1.3330     2.5870     1.4950 hc         1 98N       0.037367
     41 H3          -2.4810     3.9030     1.8110 hc         1 98N       0.037367
     42 H4          -3.0650     2.2350     1.6740 hc         1 98N       0.037367
     43 H5          -1.7600     4.3950    -1.8740 hc         1 98N       0.037367
     44 H6          -1.8200     5.2180    -0.3050 hc         1 98N       0.037367
     45 H7          -0.5550     4.0210    -0.6220 hc         1 98N       0.037367
     46 H8           4.4070    -2.9770    -1.2280 h1         1 98N       0.076700
     47 H9           4.2840    -2.8920     0.5390 h1         1 98N       0.076700
     48 H10          6.6560     1.6430    -0.4410 h4         1 98N       0.045100
     49 H11          9.0560    -1.9540    -0.0180 ha         1 98N       0.144000
     50 H12          6.9240    -3.2650    -0.1050 ha         1 98N       0.132000
     51 H13          9.6990     0.4150     2.1170 h1         1 98N       0.093700
     52 H14          8.6810     1.8620     1.8930 h1         1 98N       0.093700
     53 H15         11.7660     1.7950     1.6180 hc         1 98N       0.055033
     54 H16         10.7500     3.2390     1.3930 hc         1 98N       0.055033
     55 H17         10.8730     2.4770     2.9920 hc         1 98N       0.055033
     56 H18         -4.9290     1.0680    -2.3370 h1         1 98N       0.033200
     57 H19         -5.2140     2.1870    -1.0030 h1         1 98N       0.033200
     58 H20         -5.8230    -0.7950    -0.9740 hc         1 98N       0.049700
     59 H21         -5.2710     0.0260     1.3260 hc         1 98N       0.048200
     60 H22         -6.4000     1.3630     1.1490 hc         1 98N       0.048200
     61 H23          2.0570     0.8510    -0.7100 h4         1 98N       0.024100
     62 H24         -0.8520    -2.3940    -0.7200 ha         1 98N       0.141000
     63 H25         -3.3040    -0.8620    -2.0010 h1         1 98N       0.051700
     64 H26         -3.4270    -1.2650    -0.2720 h1         1 98N       0.051700
     65 H28         -2.5670     2.0900    -2.1230 h1         1 98N       0.051700
     66 H29          3.2980    -0.4460    -0.5440 hn         1 98N       0.318500
     67 H30         -7.1010    -1.6360     1.1900 hc         1 98N       0.055450
     68 H31         -7.4320    -0.4690     2.4650 hc         1 98N       0.055450
     69 H32         -8.9790     0.7960     0.9650 hc         1 98N       0.080700
     70 H33         -8.3930    -1.3610    -1.1560 hc         1 98N       0.055450
     71 H34         -9.5250    -0.0260    -1.3310 hc         1 98N       0.055450
     72 H35         -7.6920     1.6370    -1.1820 hc         1 98N       0.048200
     73 H36         -7.3560     0.4750    -2.4610 hc         1 98N       0.048200
@<TRIPOS>BOND
     1     1     2 ar  
     2     1    20 ar  
     3     1    22 1   
     4     2    17 ar  
     5     2    24 1   
     6     3     4 1   
     7     3     5 1   
     8     3    24 1   
     9     3    39 1   
    10     4    40 1   
    11     4    41 1   
    12     4    42 1   
    13     5    43 1   
    14     5    44 1   
    15     5    45 1   
    16     6     7 1   
    17     6    26 1   
    18     6    46 1   
    19     6    47 1   
    20     7    11 ar  
    21     7    27 ar  
    22     8     9 ar  
    23     8    27 ar  
    24     8    48 1   
    25     9    10 ar  
    26     9    28 1   
    27    10    11 ar  
    28    10    49 1   
    29    11    50 1   
    30    12    13 1   
    31    12    28 1   
    32    12    51 1   
    33    12    52 1   
    34    13    53 1   
    35    13    54 1   
    36    13    55 1   
    37    14    15 1   
    38    14    23 1   
    39    14    56 1   
    40    14    57 1   
    41    15    16 1   
    42    15    34 1   
    43    15    58 1   
    44    16    31 1   
    45    16    59 1   
    46    16    60 1   
    47    17    18 ar  
    48    18    19 ar  
    49    18    61 1   
    50    19    20 ar  
    51    19    21 1   
    52    20    62 1   
    53    21    25 2   
    54    21    26 1   
    55    22    23 1   
    56    22    63 1   
    57    22    64 1   
    58    23    24 1   
    59    24    65 1   
    60    26    66 1   
    61    28    29 2   
    62    28    30 2   
    63    31    32 1   
    64    31    67 1   
    65    31    68 1   
    66    32    33 1   
    67    32    35 1   
    68    32    69 1   
    69    33    34 1   
    70    33    70 1   
    71    33    71 1   
    72    34    72 1   
    73    34    73 1   
    74    35    36 1   
    75    35    37 1   
    76    35    38 1   
@<TRIPOS>SUBSTRUCTURE
     1 98N         1 TEMP              0 ****  ****    0 ROOT
