@<TRIPOS>MOLECULE
98P
   54    56     1     0     0
SMALL
No Charge or Current Charge


@<TRIPOS>ATOM
      1 N22          3.4960    -1.4610    -1.4860 n8         1 98P      -0.989200
      2 C3           3.1900    -0.3380    -0.5310 c3         1 98P       0.101500
      3 C4           1.6610     0.0110    -0.3350 c          1 98P       0.626100
      4 O26          0.8030    -0.8680    -0.3700 o          1 98P      -0.630100
      5 C2           3.8690    -0.6180     0.8360 c3         1 98P      -0.071100
      6 C1           5.3830    -0.7810     0.7380 ca         1 98P      -0.096300
      7 C5           6.1970     0.3330     0.4530 ca         1 98P      -0.110000
      8 C9           5.9820    -2.0410     0.9370 ca         1 98P      -0.110000
      9 C6           7.5930     0.1880     0.3620 ca         1 98P      -0.102000
     10 C8           7.3780    -2.1860     0.8460 ca         1 98P      -0.102000
     11 C7           8.1840    -1.0710     0.5580 ca         1 98P      -0.100000
     12 N23          1.2850     1.3600    -0.1210 n          1 98P      -0.399800
     13 C10         -0.1410     1.7870    -0.0050 c5         1 98P       0.034700
     14 C11         -1.0610     1.3950    -1.2070 c          1 98P       0.607100
     15 O27         -0.7220     1.1460    -2.3570 o          1 98P      -0.558100
     16 C14          0.0000     3.3400     0.0140 c5         1 98P      -0.087400
     17 C15          1.3530     3.5370     0.7390 c5         1 98P      -0.093400
     18 C16          2.2410     2.4790     0.0420 c5         1 98P       0.106000
     19 C12         -3.5100     1.0070    -1.6400 c3         1 98P       0.146300
     20 C13         -4.5270     0.1720    -0.8740 ca         1 98P      -0.109300
     21 C17         -5.7150     0.7760    -0.4070 ca         1 98P      -0.015300
     22 C19         -6.4460    -1.3140     0.5450 ca         1 98P      -0.056000
     23 C20         -5.2690    -1.9390     0.0930 ca         1 98P      -0.123000
     24 C21         -4.3060    -1.2000    -0.6160 ca         1 98P       0.212000
     25 N24         -2.3750     1.3650    -0.7870 ns         1 98P      -0.516900
     26 N25         -6.6700     0.0440     0.3050 na         1 98P       0.056300
     27 Cl28        -2.8390    -2.0140    -1.1620 cl         1 98P      -0.005000
     28 HN22         4.4810    -1.7270    -1.3660 hn         1 98P       0.413000
     29 HN2A         2.9820    -2.2980    -1.1850 hn         1 98P       0.413000
     30 H3           3.6620     0.5590    -0.9530 h1         1 98P       0.079700
     31 H2           3.4140    -1.5110     1.2830 hc         1 98P       0.056700
     32 H2A          3.6400     0.2010     1.5290 hc         1 98P       0.056700
     33 H5           5.7500     1.3130     0.3020 ha         1 98P       0.107000
     34 H9           5.3690    -2.9110     1.1620 ha         1 98P       0.107000
     35 H6           8.2160     1.0530     0.1410 ha         1 98P       0.119000
     36 H8           7.8340    -3.1610     1.0000 ha         1 98P       0.119000
     37 H7           9.2640    -1.1830     0.4880 ha         1 98P       0.121000
     38 H10         -0.5740     1.4070     0.9300 h1         1 98P       0.065700
     39 H14          0.0440     3.7550    -1.0010 hc         1 98P       0.063700
     40 H14A        -0.8330     3.8320     0.5290 hc         1 98P       0.063700
     41 H15          1.7500     4.5530     0.6340 hc         1 98P       0.065200
     42 H15A         1.2610     3.3300     1.8130 hc         1 98P       0.065200
     43 H16          2.5950     2.8310    -0.9360 h1         1 98P       0.061700
     44 H16A         3.1110     2.2200     0.6570 h1         1 98P       0.061700
     45 H12         -3.1620     0.4500    -2.5210 h1         1 98P       0.087200
     46 H12A        -3.9790     1.9310    -2.0070 h1         1 98P       0.087200
     47 H17         -5.9240     1.8320    -0.5860 h4         1 98P       0.180000
     48 H18         -8.6690     0.6350    -0.0180 h1         1 98P       0.094700
     49 H18A        -8.2840     0.1830     1.6690 h1         1 98P       0.094700
     50 H18B        -7.7170     1.7410     1.0160 h1         1 98P       0.094700
     51 H19         -7.2090    -1.8690     1.0940 h4         1 98P       0.185000
     52 H20         -5.1010    -2.9960     0.2890 ha         1 98P       0.189000
     53 HN24        -2.5560     1.5950     0.1840 hn         1 98P       0.318500
     54 C18         -7.9090     0.6890     0.7710 c3         1 98P       0.015900
@<TRIPOS>BOND
     1     1     2 1   
     2     1    28 1   
     3     1    29 1   
     4     2     3 1   
     5     2     5 1   
     6     2    30 1   
     7     3     4 2   
     8     3    12 1   
     9     5     6 1   
    10     5    31 1   
    11     5    32 1   
    12     6     7 ar  
    13     6     8 ar  
    14     7     9 ar  
    15     7    33 1   
    16     8    10 ar  
    17     8    34 1   
    18     9    11 ar  
    19     9    35 1   
    20    10    11 ar  
    21    10    36 1   
    22    11    37 1   
    23    12    13 1   
    24    12    18 1   
    25    13    14 1   
    26    13    16 1   
    27    13    38 1   
    28    14    15 2   
    29    14    25 1   
    30    16    17 1   
    31    16    39 1   
    32    16    40 1   
    33    17    18 1   
    34    17    41 1   
    35    17    42 1   
    36    18    43 1   
    37    18    44 1   
    38    19    20 1   
    39    19    25 1   
    40    19    45 1   
    41    19    46 1   
    42    20    21 ar  
    43    20    24 ar  
    44    21    26 2   
    45    21    47 1   
    46    22    23 ar  
    47    22    26 1   
    48    22    51 1   
    49    23    24 ar  
    50    23    52 1   
    51    24    27 1   
    52    25    53 1   
    53    26    54 1   
    54    48    54 1   
    55    49    54 1   
    56    50    54 1   
@<TRIPOS>SUBSTRUCTURE
     1 98P         1 TEMP              0 ****  ****    0 ROOT
