@<TRIPOS>MOLECULE
98P
   54    56     1     0     0
SMALL
bcc


@<TRIPOS>ATOM
      1 N22          2.7150    -1.5570    -0.9970 n8         1 98P      -0.878800
      2 C3           2.8390    -0.2640    -0.3640 c3         1 98P       0.101500
      3 C4           1.4460     0.3150    -0.1580 c          1 98P       0.693100
      4 O26          0.5010    -0.4070     0.1260 o          1 98P      -0.630100
      5 C2           3.5520    -0.2690     1.0110 c3         1 98P      -0.071100
      6 C1           4.9760    -0.7270     0.8960 ca         1 98P      -0.096300
      7 C5           5.9900     0.1860     0.6110 ca         1 98P      -0.128000
      8 C9           5.3110    -2.0740     1.0190 ca         1 98P      -0.128000
      9 C6           7.3050    -0.2330     0.4590 ca         1 98P      -0.120000
     10 C8           6.6250    -2.4980     0.8670 ca         1 98P      -0.120000
     11 C7           7.6270    -1.5780     0.5870 ca         1 98P      -0.118000
     12 N23          1.3070     1.6490    -0.2400 n          1 98P      -0.466800
     13 C10          0.0090     2.2510    -0.0080 c5         1 98P       0.034700
     14 C11         -1.0260     1.7490    -1.0060 c          1 98P       0.674100
     15 O27         -0.7390     1.5140    -2.1650 o          1 98P      -0.558100
     16 C14          0.2580     3.7540    -0.2110 c5         1 98P      -0.087400
     17 C15          1.7480     3.9120     0.0680 c5         1 98P      -0.093400
     18 C16          2.3410     2.6390    -0.5160 c5         1 98P       0.106000
     19 C12         -3.4430     1.4040    -1.3090 c3         1 98P       0.146300
     20 C13         -4.2270     0.2450    -0.7580 ca         1 98P      -0.109300
     21 C17         -5.4760     0.4630    -0.2210 ca         1 98P      -0.033300
     22 C19         -5.7590    -1.7870     0.3020 ca         1 98P      -0.023300
     23 C20         -4.5230    -2.0880    -0.2120 ca         1 98P      -0.141000
     24 C21         -3.7500    -1.0670    -0.7450 ca         1 98P       0.120400
     25 N24         -2.2770     1.6820    -0.5110 ns         1 98P      -0.583900
     26 N25         -6.2150    -0.5290     0.2920 na         1 98P       0.034900
     27 CL28        -2.2180    -1.4260    -1.3870 cl         1 98P       0.086600
     28 HN22         3.6360    -1.9490    -1.1500 hn         1 98P       0.357800
     29 HN2A         2.2230    -2.2000    -0.3880 hn         1 98P       0.357800
     30 H3           3.4130     0.3730    -1.0420 h1         1 98P       0.079700
     31 H2           2.9950    -0.9230     1.6870 hc         1 98P       0.056700
     32 H2A          3.5230     0.7320     1.4490 hc         1 98P       0.056700
     33 H5           5.7520     1.2400     0.5120 ha         1 98P       0.125000
     34 H9           4.5370    -2.7980     1.2430 ha         1 98P       0.125000
     35 H6           8.0790     0.4930     0.2440 ha         1 98P       0.137000
     36 H8           6.8660    -3.5490     0.9710 ha         1 98P       0.137000
     37 H7           8.6520    -1.9060     0.4720 ha         1 98P       0.139000
     38 H10         -0.3220     2.0510     1.0160 h1         1 98P       0.065700
     39 H14          0.0440     4.0410    -1.2430 hc         1 98P       0.063700
     40 H14A        -0.3720     4.3570     0.4400 hc         1 98P       0.063700
     41 H15          2.1710     4.8090    -0.3820 hc         1 98P       0.065200
     42 H15A         1.9350     3.9530     1.1430 hc         1 98P       0.065200
     43 H16          2.5140     2.7380    -1.5920 h1         1 98P       0.061700
     44 H16A         3.2870     2.3760    -0.0450 h1         1 98P       0.061700
     45 H12         -3.1250     1.1870    -2.3280 h1         1 98P       0.087200
     46 H12A        -4.0930     2.2800    -1.3540 h1         1 98P       0.087200
     47 H17         -5.9090     1.4530    -0.1900 h4         1 98P       0.198000
     48 H18         -8.2720    -0.2930    -0.0110 h1         1 98P       0.094700
     49 H18A        -7.8120    -0.9620     1.5710 h1         1 98P       0.094700
     50 H18B        -7.5660     0.7590     1.2380 h1         1 98P       0.094700
     51 H19         -6.4020    -2.5420     0.7290 h4         1 98P       0.203000
     52 H20         -4.1770    -3.1110    -0.1940 ha         1 98P       0.207000
     53 HN24        -2.4280     1.9300     0.4550 hn         1 98P       0.318500
     54 C18         -7.5580    -0.2360     0.8060 c3         1 98P      -0.013400
@<TRIPOS>BOND
     1     1     2 1   
     2     1    28 1   
     3     1    29 1   
     4     2     3 1   
     5     2     5 1   
     6     2    30 1   
     7     3     4 2   
     8     3    12 1   
     9     5     6 1   
    10     5    31 1   
    11     5    32 1   
    12     6     7 ar  
    13     6     8 ar  
    14     7     9 ar  
    15     7    33 1   
    16     8    10 ar  
    17     8    34 1   
    18     9    11 ar  
    19     9    35 1   
    20    10    11 ar  
    21    10    36 1   
    22    11    37 1   
    23    12    13 1   
    24    12    18 1   
    25    13    14 1   
    26    13    16 1   
    27    13    38 1   
    28    14    15 2   
    29    14    25 1   
    30    16    17 1   
    31    16    39 1   
    32    16    40 1   
    33    17    18 1   
    34    17    41 1   
    35    17    42 1   
    36    18    43 1   
    37    18    44 1   
    38    19    20 1   
    39    19    25 1   
    40    19    45 1   
    41    19    46 1   
    42    20    21 ar  
    43    20    24 ar  
    44    21    26 2   
    45    21    47 1   
    46    22    23 ar  
    47    22    26 1   
    48    22    51 1   
    49    23    24 ar  
    50    23    52 1   
    51    24    27 1   
    52    25    53 1   
    53    26    54 1   
    54    48    54 1   
    55    49    54 1   
    56    50    54 1   
@<TRIPOS>SUBSTRUCTURE
     1 98P         1 TEMP              0 ****  ****    0 ROOT
