@<TRIPOS>MOLECULE
98Q
   23    24     1     0     0
SMALL
abcg2


@<TRIPOS>ATOM
      1 C10        184.8140   282.7390   109.2500 ca         1 98Q      -0.032000
      2 C01        182.4360   286.8230   108.3670 c3         1 98Q       0.151900
      3 O02        182.9210   285.5550   107.9830 os         1 98Q      -0.337100
      4 C03        183.6330   284.8380   108.8750 ca         1 98Q       0.160100
      5 C04        183.9240   285.2710   110.1530 ca         1 98Q      -0.168000
      6 C05        184.6670   284.4370   111.0020 ca         1 98Q      -0.031800
      7 C06        185.1300   284.5590   112.3440 cc         1 98Q      -0.259200
      8 C07        185.8050   283.4020   112.6290 cd         1 98Q      -0.140100
      9 N08        185.7870   282.5750   111.5500 na         1 98Q      -0.216700
     10 C09        185.0980   283.1800   110.5350 ca         1 98Q      -0.100200
     11 C11        184.0820   283.5690   108.4210 ca         1 98Q      -0.214300
     12 C12        183.7570   283.1300   107.0310 c3         1 98Q       0.369300
     13 F13        182.4360   283.0390   106.8100 f          1 98Q      -0.115000
     14 F14        184.2630   281.9200   106.7570 f          1 98Q      -0.115000
     15 F15        184.2440   283.9620   106.0970 f          1 98Q      -0.115000
     16 H1         185.1610   281.7710   108.9170 ha         1 98Q       0.132000
     17 H2         181.8840   287.2130   107.5160 h1         1 98Q       0.043033
     18 H3         181.7620   286.7590   109.2260 h1         1 98Q       0.043033
     19 H4         183.2480   287.5150   108.6070 h1         1 98Q       0.043033
     20 H5         183.5920   286.2350   110.5130 ha         1 98Q       0.126000
     21 H6         184.9840   285.3910   113.0130 ha         1 98Q       0.209000
     22 H7         186.3030   283.1050   113.5380 h4         1 98Q       0.214000
     23 H8         186.2120   281.6640   111.5090 hn         1 98Q       0.354000
@<TRIPOS>BOND
     1     1    10 ar  
     2     1    11 ar  
     3     1    16 1   
     4     2     3 1   
     5     2    17 1   
     6     2    18 1   
     7     2    19 1   
     8     3     4 1   
     9     4     5 ar  
    10     4    11 ar  
    11     5     6 ar  
    12     5    20 1   
    13     6     7 1   
    14     6    10 ar  
    15     7     8 2   
    16     7    21 1   
    17     8     9 1   
    18     8    22 1   
    19     9    10 1   
    20     9    23 1   
    21    11    12 1   
    22    12    13 1   
    23    12    14 1   
    24    12    15 1   
@<TRIPOS>SUBSTRUCTURE
     1 98Q         1 TEMP              0 ****  ****    0 ROOT
