@<TRIPOS>MOLECULE
98Q
   23    24     1     0     0
SMALL
No Charge or Current Charge


@<TRIPOS>ATOM
      1 C10        184.8350   282.7160   109.2710 ca         1 98Q      -0.032000
      2 C01        182.3990   286.9060   108.3630 c3         1 98Q       0.151900
      3 O02        182.8970   285.6090   107.9900 os         1 98Q      -0.337100
      4 C03        183.6290   284.8170   108.8550 ca         1 98Q       0.160100
      5 C04        183.9310   285.2480   110.1720 ca         1 98Q      -0.168000
      6 C05        184.6750   284.3950   110.9890 ca         1 98Q      -0.031800
      7 C06        185.1210   284.5590   112.3370 cc         1 98Q      -0.259200
      8 C07        185.8250   283.4100   112.6770 cd         1 98Q      -0.140100
      9 N08        185.8250   282.5310   111.5650 na         1 98Q      -0.216700
     10 C09        185.1130   283.1770   110.5640 ca         1 98Q      -0.100200
     11 C11        184.0810   283.5450   108.3970 ca         1 98Q      -0.214300
     12 C12        183.7560   283.0760   106.9720 c3         1 98Q       0.369300
     13 F13        182.4210   283.0020   106.7600 f          1 98Q      -0.115000
     14 F14        184.2550   281.8490   106.6920 f          1 98Q      -0.115000
     15 F15        184.2620   283.9150   106.0390 f          1 98Q      -0.115000
     16 H1         185.1980   281.7390   108.9590 ha         1 98Q       0.132000
     17 H2         181.8480   287.3560   107.5270 h1         1 98Q       0.043033
     18 H3         181.7150   286.8310   109.2180 h1         1 98Q       0.043033
     19 H4         183.2240   287.5800   108.6270 h1         1 98Q       0.043033
     20 H5         183.6050   286.2090   110.5580 ha         1 98Q       0.126000
     21 H6         184.9500   285.4150   112.9860 ha         1 98Q       0.209000
     22 H7         186.3190   283.1540   113.6130 h4         1 98Q       0.214000
     23 H8         186.2600   281.6140   111.5120 hn         1 98Q       0.354000
@<TRIPOS>BOND
     1     1    10 ar  
     2     1    11 ar  
     3     1    16 1   
     4     2     3 1   
     5     2    17 1   
     6     2    18 1   
     7     2    19 1   
     8     3     4 1   
     9     4     5 ar  
    10     4    11 ar  
    11     5     6 ar  
    12     5    20 1   
    13     6     7 1   
    14     6    10 ar  
    15     7     8 2   
    16     7    21 1   
    17     8     9 1   
    18     8    22 1   
    19     9    10 1   
    20     9    23 1   
    21    11    12 1   
    22    12    13 1   
    23    12    14 1   
    24    12    15 1   
@<TRIPOS>SUBSTRUCTURE
     1 98Q         1 TEMP              0 ****  ****    0 ROOT
