@<TRIPOS>MOLECULE
98T
   19    19     1     0     0
SMALL
abcg2


@<TRIPOS>ATOM
      1 C10        184.4890   283.2010   106.8760 ca         1 98T       0.128000
      2 O01        184.2170   286.1280   109.8720 o          1 98T      -0.488000
      3 C02        184.8610   285.1250   110.0650 c          1 98T       0.612700
      4 O03        185.5270   284.8860   111.1840 os         1 98T      -0.443100
      5 C04        185.4730   285.8790   112.2080 c3         1 98T       0.153900
      6 C05        184.9990   284.0310   109.0780 ca         1 98T      -0.190600
      7 C06        185.7190   282.8650   109.3340 ca         1 98T       0.005000
      8 C07        185.8240   281.8800   108.3720 ca         1 98T      -0.232000
      9 C08        185.2150   282.0330   107.1260 ca         1 98T       0.199100
     10 O09        185.2940   281.1110   106.1660 oh         1 98T      -0.510100
     11 I11        183.5570   283.4540   105.0150 i          1 98T      -0.278000
     12 C12        184.3820   284.1850   107.8380 ca         1 98T       0.015000
     13 H1         186.0710   285.4930   113.0280 h1         1 98T       0.049367
     14 H2         185.8930   286.8250   111.8670 h1         1 98T       0.049367
     15 H3         184.4520   286.0420   112.5520 h1         1 98T       0.049367
     16 H4         186.2050   282.7120   110.2870 ha         1 98T       0.134000
     17 H5         186.3860   280.9780   108.5850 ha         1 98T       0.120000
     18 H6         185.8230   280.3570   106.4550 ho         1 98T       0.476000
     19 H7         183.8190   285.0850   107.6320 ha         1 98T       0.150000
@<TRIPOS>BOND
     1     1     9 ar  
     2     1    11 1   
     3     1    12 ar  
     4     2     3 2   
     5     3     4 1   
     6     3     6 1   
     7     4     5 1   
     8     5    13 1   
     9     5    14 1   
    10     5    15 1   
    11     6     7 ar  
    12     6    12 ar  
    13     7     8 ar  
    14     7    16 1   
    15     8     9 ar  
    16     8    17 1   
    17     9    10 1   
    18    10    18 1   
    19    12    19 1   
@<TRIPOS>SUBSTRUCTURE
     1 98T         1 TEMP              0 ****  ****    0 ROOT
