@<TRIPOS>MOLECULE
98T
   19    19     1     0     0
SMALL
No Charge or Current Charge


@<TRIPOS>ATOM
      1 C10        184.4610   283.1850   106.8170 ca         1 98T       0.128000
      2 O01        184.2440   286.1790   109.8650 o          1 98T      -0.488000
      3 C02        184.8760   285.1510   110.0690 c          1 98T       0.612700
      4 O03        185.5380   284.8890   111.2420 os         1 98T      -0.443100
      5 C04        185.4840   285.8770   112.2880 c3         1 98T       0.153900
      6 C05        184.9980   284.0520   109.0430 ca         1 98T      -0.190600
      7 C06        185.7350   282.8750   109.3070 ca         1 98T       0.005000
      8 C07        185.8330   281.8640   108.3340 ca         1 98T      -0.232000
      9 C08        185.2000   282.0140   107.0900 ca         1 98T       0.199100
     10 O09        185.3080   281.0190   106.1580 oh         1 98T      -0.510100
     11 I11        183.4620   283.4610   104.9010 i          1 98T      -0.278000
     12 C12        184.3630   284.1940   107.7890 ca         1 98T       0.015000
     13 H1         186.0530   285.5370   113.1630 h1         1 98T       0.049367
     14 H2         185.9150   286.8280   111.9510 h1         1 98T       0.049367
     15 H3         184.4490   286.0560   112.6060 h1         1 98T       0.049367
     16 H4         186.2360   282.7330   110.2630 ha         1 98T       0.134000
     17 H5         186.4050   280.9670   108.5570 ha         1 98T       0.120000
     18 H6         185.8560   280.3000   106.5370 ho         1 98T       0.476000
     19 H7         183.7890   285.0890   107.5580 ha         1 98T       0.150000
@<TRIPOS>BOND
     1     1     9 ar  
     2     1    11 1   
     3     1    12 ar  
     4     2     3 2   
     5     3     4 1   
     6     3     6 1   
     7     4     5 1   
     8     5    13 1   
     9     5    14 1   
    10     5    15 1   
    11     6     7 ar  
    12     6    12 ar  
    13     7     8 ar  
    14     7    16 1   
    15     8     9 ar  
    16     8    17 1   
    17     9    10 1   
    18    10    18 1   
    19    12    19 1   
@<TRIPOS>SUBSTRUCTURE
     1 98T         1 TEMP              0 ****  ****    0 ROOT
