@<TRIPOS>MOLECULE
98U
   28    28     1     0     0
SMALL
bcc


@<TRIPOS>ATOM
      1 O4          96.0390    39.4350    73.5550 oh         1 98U      -0.579800
      2 C4          95.5920    38.2180    74.1000 c6         1 98U       0.102100
      3 C3          94.0830    38.2190    74.3410 c6         1 98U       0.077100
      4 C2          93.3320    38.3480    73.0240 c6         1 98U       0.077100
      5 O2          91.9420    38.2020    73.1770 oh         1 98U      -0.608800
      6 O3          93.6970    39.3360    75.1480 os         1 98U      -0.448900
      7 C7          93.7060    39.2220    76.4800 c          1 98U       0.643100
      8 C8          93.2640    40.4990    77.1290 c3         1 98U      -0.157100
      9 O7          94.0290    38.2180    77.0590 o          1 98U      -0.521000
     10 C5          95.9150    37.0880    73.1280 c6         1 98U       0.156100
     11 C6          97.3790    37.0340    72.7420 c3         1 98U      -0.082100
     12 O5          95.1650    37.2250    71.9260 os         1 98U      -0.384600
     13 C1          93.7860    37.2400    72.0650 c6         1 98U       0.363900
     14 HO4         95.9160    40.1320    74.2070 ho         1 98U       0.407000
     15 H4          96.1030    37.9930    75.0460 h1         1 98U       0.053700
     16 H3          93.7990    37.2850    74.8350 h1         1 98U       0.089700
     17 H2          93.5820    39.3100    72.5590 h1         1 98U       0.073700
     18 HO2         91.5980    38.9320    73.7000 ho         1 98U       0.424000
     19 H6          93.2770    40.4000    78.2100 hc         1 98U       0.071700
     20 H7          93.9210    41.3190    76.8370 hc         1 98U       0.071700
     21 H8          92.2570    40.7620    76.8050 hc         1 98U       0.071700
     22 H5          95.6530    36.1500    73.6330 h1         1 98U       0.059700
     23 H61         97.9960    36.9470    73.6360 hc         1 98U       0.049367
     24 H62         97.5770    36.1650    72.1150 hc         1 98U       0.049367
     25 H63         97.6890    37.9270    72.2000 hc         1 98U       0.049367
     26 H1          93.3920    37.4580    71.0640 h2         1 98U       0.082700
     27 O1          93.3630    35.9790    72.5000 oh         1 98U      -0.629800
     28 HO1         92.4500    36.0450    72.8040 ho         1 98U       0.438000
@<TRIPOS>BOND
     1     1     2 1   
     2     1    14 1   
     3     2     3 1   
     4     2    10 1   
     5     2    15 1   
     6     3     4 1   
     7     3     6 1   
     8     3    16 1   
     9     4     5 1   
    10     4    13 1   
    11     4    17 1   
    12     5    18 1   
    13     6     7 1   
    14     7     8 1   
    15     7     9 2   
    16     8    19 1   
    17     8    20 1   
    18     8    21 1   
    19    10    11 1   
    20    10    12 1   
    21    10    22 1   
    22    11    23 1   
    23    11    24 1   
    24    11    25 1   
    25    12    13 1   
    26    13    26 1   
    27    13    27 1   
    28    27    28 1   
@<TRIPOS>SUBSTRUCTURE
     1 98U         1 TEMP              0 ****  ****    0 ROOT
