@<TRIPOS>MOLECULE
98U
   28    28     1     0     0
SMALL
No Charge or Current Charge


@<TRIPOS>ATOM
      1 O4          96.0170    39.4970    73.6810 oh         1 98U      -0.702000
      2 C4          95.5650    38.1990    74.1260 c6         1 98U       0.125300
      3 C3          94.0170    38.2200    74.3180 c6         1 98U       0.100300
      4 C2          93.2970    38.3340    72.9390 c6         1 98U       0.100300
      5 O2          91.8600    38.3090    73.1160 oh         1 98U      -0.731000
      6 O3          93.5910    39.3110    75.1760 os         1 98U      -0.472100
      7 C7          93.8360    39.2830    76.5260 c          1 98U       0.594100
      8 C8          93.3120    40.5330    77.2160 c3         1 98U      -0.157100
      9 O7          94.3740    38.3560    77.1130 o          1 98U      -0.472000
     10 C5          95.9270    37.0510    73.1220 c6         1 98U       0.179300
     11 C6          97.4410    36.9780    72.8000 c3         1 98U      -0.082100
     12 O5          95.2330    37.2270    71.8610 os         1 98U      -0.431000
     13 C1          93.7920    37.2210    71.9520 c6         1 98U       0.410300
     14 HO4         95.4600    40.1550    74.1580 ho         1 98U       0.506000
     15 H4          96.0330    37.9570    75.0920 h1         1 98U       0.053700
     16 H3          93.7110    37.2700    74.7840 h1         1 98U       0.089700
     17 H2          93.5870    39.2960    72.4910 h1         1 98U       0.073700
     18 HO2         91.6700    38.9400    73.8530 ho         1 98U       0.523000
     19 H6          93.4780    40.5180    78.2990 hc         1 98U       0.071700
     20 H7          93.7640    41.4120    76.7440 hc         1 98U       0.071700
     21 H8          92.2530    40.6550    76.9680 hc         1 98U       0.071700
     22 H5          95.6370    36.0860    73.5630 h1         1 98U       0.059700
     23 H61         98.0300    36.8450    73.7150 hc         1 98U       0.049367
     24 H62         97.6600    36.1310    72.1390 hc         1 98U       0.049367
     25 H63         97.7930    37.8910    72.3040 hc         1 98U       0.049367
     26 H1          93.3700    37.4250    70.9550 h2         1 98U       0.082700
     27 O1          93.3710    35.9280    72.3920 oh         1 98U      -0.692000
     28 HO1         92.4230    36.0600    72.6200 ho         1 98U       0.477000
@<TRIPOS>BOND
     1     1     2 1   
     2     1    14 1   
     3     2     3 1   
     4     2    10 1   
     5     2    15 1   
     6     3     4 1   
     7     3     6 1   
     8     3    16 1   
     9     4     5 1   
    10     4    13 1   
    11     4    17 1   
    12     5    18 1   
    13     6     7 1   
    14     7     8 1   
    15     7     9 2   
    16     8    19 1   
    17     8    20 1   
    18     8    21 1   
    19    10    11 1   
    20    10    12 1   
    21    10    22 1   
    22    11    23 1   
    23    11    24 1   
    24    11    25 1   
    25    12    13 1   
    26    13    26 1   
    27    13    27 1   
    28    27    28 1   
@<TRIPOS>SUBSTRUCTURE
     1 98U         1 TEMP              0 ****  ****    0 ROOT
