@<TRIPOS>MOLECULE
98W
   25    25     1     0     0
SMALL
No Charge or Current Charge


@<TRIPOS>ATOM
      1 C10        185.0410   283.2240   108.7800 ca         1 98W      -0.120600
      2 C15        185.1790   285.6100   111.6830 c3         1 98W       0.153900
      3 C01        182.4770   284.6080   103.3030 c3         1 98W       0.153900
      4 O02        183.1520   283.8440   104.3200 os         1 98W      -0.436100
      5 C03        183.3700   284.4370   105.5400 c          1 98W       0.606700
      6 O04        183.0200   285.5800   105.8040 o          1 98W      -0.485000
      7 C05        184.0850   283.5460   106.5330 ca         1 98W      -0.120600
      8 C06        184.4760   282.2300   106.1950 ca         1 98W      -0.099000
      9 C07        185.1380   281.4210   107.1290 ca         1 98W       0.113100
     10 O08        185.5040   280.1530   106.7770 oh         1 98W      -0.530100
     11 C09        185.4200   281.9120   108.4140 ca         1 98W      -0.099000
     12 C11        184.3740   284.0310   107.8280 ca         1 98W      -0.042000
     13 C12        185.3530   283.7380   110.1690 c          1 98W       0.606700
     14 O13        185.9290   283.0640   111.0130 o          1 98W      -0.485000
     15 O14        184.9310   285.0260   110.3910 os         1 98W      -0.436100
     16 H1         184.7910   286.6360   111.7190 h1         1 98W       0.050700
     17 H2         184.6860   285.0320   112.4760 h1         1 98W       0.050700
     18 H3         186.2550   285.6470   111.8970 h1         1 98W       0.050700
     19 H4         182.3720   284.0130   102.3870 h1         1 98W       0.050700
     20 H5         181.4730   284.9010   103.6350 h1         1 98W       0.050700
     21 H6         183.0420   285.5160   103.0560 h1         1 98W       0.050700
     22 H7         184.2700   281.8250   105.2070 ha         1 98W       0.144000
     23 H8         185.9530   279.7260   107.5390 ho         1 98W       0.472000
     24 H9         185.9340   281.2780   109.1330 ha         1 98W       0.144000
     25 H10        184.0740   285.0440   108.0920 ha         1 98W       0.156000
@<TRIPOS>BOND
     1     1    11 ar  
     2     1    12 ar  
     3     1    13 1   
     4     2    15 1   
     5     2    16 1   
     6     2    17 1   
     7     2    18 1   
     8     3     4 1   
     9     3    19 1   
    10     3    20 1   
    11     3    21 1   
    12     4     5 1   
    13     5     6 2   
    14     5     7 1   
    15     7     8 ar  
    16     7    12 ar  
    17     8     9 ar  
    18     8    22 1   
    19     9    10 1   
    20     9    11 ar  
    21    10    23 1   
    22    11    24 1   
    23    12    25 1   
    24    13    14 2   
    25    13    15 1   
@<TRIPOS>SUBSTRUCTURE
     1 98W         1 TEMP              0 ****  ****    0 ROOT
