@<TRIPOS>MOLECULE
98W
   25    25     1     0     0
SMALL
abcg2


@<TRIPOS>ATOM
      1 C10        185.0050   283.2560   108.7510 ca         1 98W      -0.120600
      2 C15        185.1860   285.5600   111.6060 c3         1 98W       0.153900
      3 C01        182.5170   284.5970   103.4030 c3         1 98W       0.153900
      4 O02        183.1800   283.8450   104.4190 os         1 98W      -0.436100
      5 C03        183.3810   284.4310   105.5860 c          1 98W       0.606700
      6 O04        183.0330   285.5570   105.8430 o          1 98W      -0.485000
      7 C05        184.0870   283.5470   106.5540 ca         1 98W      -0.120600
      8 C06        184.4790   282.2590   106.2130 ca         1 98W      -0.099000
      9 C07        185.1390   281.4630   107.1460 ca         1 98W       0.113100
     10 O08        185.4980   280.2280   106.7570 oh         1 98W      -0.530100
     11 C09        185.3980   281.9630   108.4160 ca         1 98W      -0.099000
     12 C11        184.3500   284.0530   107.8230 ca         1 98W      -0.042000
     13 C12        185.3160   283.7360   110.1260 c          1 98W       0.606700
     14 O13        185.8530   283.0580   110.9660 o          1 98W      -0.485000
     15 O14        184.9410   284.9880   110.3210 os         1 98W      -0.436100
     16 H1         184.8070   286.5770   111.5560 h1         1 98W       0.050700
     17 H2         184.6600   285.0150   112.3900 h1         1 98W       0.050700
     18 H3         186.2510   285.5800   111.8340 h1         1 98W       0.050700
     19 H4         182.4480   283.9370   102.5430 h1         1 98W       0.050700
     20 H5         181.5150   284.8900   103.7160 h1         1 98W       0.050700
     21 H6         183.0840   285.4870   103.1330 h1         1 98W       0.050700
     22 H7         184.2830   281.8550   105.2290 ha         1 98W       0.144000
     23 H8         185.9420   279.7550   107.4710 ho         1 98W       0.472000
     24 H9         185.9090   281.3480   109.1480 ha         1 98W       0.144000
     25 H10        184.0380   285.0570   108.0710 ha         1 98W       0.156000
@<TRIPOS>BOND
     1     1    11 ar  
     2     1    12 ar  
     3     1    13 1   
     4     2    15 1   
     5     2    16 1   
     6     2    17 1   
     7     2    18 1   
     8     3     4 1   
     9     3    19 1   
    10     3    20 1   
    11     3    21 1   
    12     4     5 1   
    13     5     6 2   
    14     5     7 1   
    15     7     8 ar  
    16     7    12 ar  
    17     8     9 ar  
    18     8    22 1   
    19     9    10 1   
    20     9    11 ar  
    21    10    23 1   
    22    11    24 1   
    23    12    25 1   
    24    13    14 2   
    25    13    15 1   
@<TRIPOS>SUBSTRUCTURE
     1 98W         1 TEMP              0 ****  ****    0 ROOT
