@<TRIPOS>MOLECULE
98Z
   17    18     1     0     0
SMALL
bcc


@<TRIPOS>ATOM
      1 C10        185.1180   285.3760   109.1200 ca         1 98Z      -0.078000
      2 N01        183.8910   284.5740   105.3260 n1         1 98Z      -0.385800
      3 C02        184.4370   284.0750   106.2140 cg         1 98Z       0.235500
      4 C03        185.0980   283.4940   107.3110 cc         1 98Z      -0.066900
      5 C04        185.6070   282.2160   107.3690 cd         1 98Z      -0.053100
      6 N05        186.1710   282.0200   108.5750 na         1 98Z      -0.158400
      7 C06        186.0520   283.1510   109.3430 ca         1 98Z      -0.058200
      8 C07        186.4830   283.4060   110.6420 ca         1 98Z      -0.138000
      9 C08        186.2190   284.6590   111.1600 ca         1 98Z      -0.110000
     10 C09        185.5430   285.6330   110.4090 ca         1 98Z      -0.146000
     11 C11        185.3750   284.1160   108.5760 ca         1 98Z      -0.063800
     12 H1         184.5970   286.1330   108.5470 ha         1 98Z       0.143000
     13 H2         185.5970   281.4410   106.6190 h4         1 98Z       0.174000
     14 H3         186.6170   281.1630   108.8630 hn         1 98Z       0.304700
     15 H4         187.0040   282.6540   111.2200 ha         1 98Z       0.134000
     16 H5         186.5390   284.8940   112.1670 ha         1 98Z       0.132000
     17 H6         185.3530   286.6030   110.8500 ha         1 98Z       0.133000
@<TRIPOS>BOND
     1     1    10 ar  
     2     1    11 ar  
     3     1    12 1   
     4     2     3 3   
     5     3     4 1   
     6     4     5 2   
     7     4    11 1   
     8     5     6 1   
     9     5    13 1   
    10     6     7 1   
    11     6    14 1   
    12     7     8 ar  
    13     7    11 ar  
    14     8     9 ar  
    15     8    15 1   
    16     9    10 ar  
    17     9    16 1   
    18    10    17 1   
@<TRIPOS>SUBSTRUCTURE
     1 98Z         1 TEMP              0 ****  ****    0 ROOT
