@<TRIPOS>MOLECULE
98Z
   17    18     1     0     0
SMALL
No Charge or Current Charge


@<TRIPOS>ATOM
      1 C10        185.1170   285.3660   109.1060 ca         1 98Z      -0.060000
      2 N01        183.8700   284.5950   105.3050 n1         1 98Z      -0.475000
      3 C02        184.4200   284.1190   106.2190 cg         1 98Z       0.324700
      4 C03        185.0950   283.5110   107.3150 cc         1 98Z      -0.066900
      5 C04        185.6000   282.2130   107.3440 cd         1 98Z      -0.103100
      6 N05        186.2020   281.9720   108.6050 na         1 98Z      -0.208700
      7 C06        186.0520   283.1420   109.3300 ca         1 98Z      -0.058200
      8 C07        186.4830   283.4020   110.6380 ca         1 98Z      -0.120000
      9 C08        186.2200   284.6770   111.1840 ca         1 98Z      -0.092000
     10 C09        185.5400   285.6550   110.4200 ca         1 98Z      -0.128000
     11 C11        185.3940   284.0890   108.5940 ca         1 98Z      -0.063800
     12 H1         184.5930   286.1100   108.5100 ha         1 98Z       0.125000
     13 H2         185.5730   281.4540   106.5670 h4         1 98Z       0.224000
     14 H3         186.6520   281.1140   108.9130 hn         1 98Z       0.355000
     15 H4         187.0060   282.6450   111.2180 ha         1 98Z       0.116000
     16 H5         186.5430   284.9090   112.1970 ha         1 98Z       0.114000
     17 H6         185.3410   286.6350   110.8490 ha         1 98Z       0.115000
@<TRIPOS>BOND
     1     1    10 ar  
     2     1    11 ar  
     3     1    12 1   
     4     2     3 3   
     5     3     4 1   
     6     4     5 2   
     7     4    11 1   
     8     5     6 1   
     9     5    13 1   
    10     6     7 1   
    11     6    14 1   
    12     7     8 ar  
    13     7    11 ar  
    14     8     9 ar  
    15     8    15 1   
    16     9    10 ar  
    17     9    16 1   
    18    10    17 1   
@<TRIPOS>SUBSTRUCTURE
     1 98Z         1 TEMP              0 ****  ****    0 ROOT
