@<TRIPOS>MOLECULE
990
   46    49     1     0     0
SMALL
abcg2


@<TRIPOS>ATOM
      1 F17          0.6800    -4.8150     0.6650 f          1 990      -0.176000
      2 C16          0.5570    -3.4820     0.7590 ca         1 990       0.171000
      3 C18          1.4780    -2.6820     0.1140 ca         1 990      -0.141000
      4 C8           1.3740    -1.2960     0.2060 cp         1 990      -0.108500
      5 C21          2.4010    -0.4990    -0.5120 cp         1 990       0.434500
      6 N26          3.0240     0.4630     0.1760 nb         1 990      -0.767000
      7 C25          3.9520     1.1760    -0.4210 ca         1 990       0.589300
      8 O27          4.5790     2.1390     0.2550 os         1 990      -0.458300
      9 C28          4.1950     2.3730     1.6020 c3         1 990       0.159900
     10 C24          4.3330     0.9810    -1.7560 ca         1 990      -0.181000
     11 C23          3.6860    -0.0090    -2.4590 ca         1 990      -0.045000
     12 C22          2.6980    -0.7700    -1.8360 ca         1 990      -0.187000
     13 C19         -0.4710    -2.9470     1.5010 ca         1 990      -0.142000
     14 C20         -0.5710    -1.5650     1.5820 ca         1 990      -0.076000
     15 C7           0.3280    -0.7170     0.9470 ca         1 990      -0.088300
     16 C6           0.1540     0.7960     1.0110 c6         1 990       0.175000
     17 N9          -0.8300     1.2240     1.9780 ns         1 990      -0.514900
     18 C1          -2.1600     1.3150     1.7480 c          1 990       0.600600
     19 O2          -2.9400     1.6380     2.6360 o          1 990      -0.570000
     20 C5          -0.2290     1.3800    -0.3480 c6         1 990      -0.150700
     21 C4          -1.6490     1.0480    -0.6710 ca         1 990       0.203300
     22 N15         -1.9630     0.8320    -1.9320 nb         1 990      -0.265000
     23 C13         -3.2510     0.5600    -2.1810 ca         1 990       0.415900
     24 N14         -3.5940     0.3430    -3.4540 nv         1 990      -1.068900
     25 N12         -4.2210     0.4710    -1.2620 nb         1 990      -0.277000
     26 C10         -3.9060     0.6970     0.0020 ca         1 990       0.237300
     27 C3          -2.5850     1.0090     0.3670 ca         1 990      -0.337600
     28 C11         -5.0320     0.5730     0.9780 c3         1 990      -0.154400
     29 H1           2.2880    -3.1340    -0.4420 ha         1 990       0.135000
     30 H2           3.1490     2.6740     1.6790 h1         1 990       0.046700
     31 H3           4.3520     1.4940     2.2280 h1         1 990       0.046700
     32 H4           4.8270     3.1830     1.9550 h1         1 990       0.046700
     33 H5           5.1020     1.5930    -2.2070 ha         1 990       0.140000
     34 H6           3.9400    -0.1920    -3.4950 ha         1 990       0.124000
     35 H7           2.1670    -1.5410    -2.3780 ha         1 990       0.134000
     36 H8          -1.1840    -3.5850     2.0060 ha         1 990       0.136000
     37 H9          -1.3810    -1.1560     2.1700 ha         1 990       0.127000
     38 H10          1.1030     1.2360     1.3130 h1         1 990       0.091700
     39 H11         -0.5220     1.3990     2.9230 hn         1 990       0.322500
     40 H12         -0.1230     2.4690    -0.3070 hc         1 990       0.081200
     41 H13          0.4250     1.0260    -1.1420 hc         1 990       0.081200
     42 H14         -2.9160     0.4410    -4.1880 hn         1 990       0.507000
     43 H15         -4.5520     0.1680    -3.7000 hn         1 990       0.507000
     44 H16         -5.2960     1.5450     1.3940 hc         1 990       0.065367
     45 H17         -5.9030     0.1620     0.4730 hc         1 990       0.065367
     46 H18         -4.7700    -0.0690     1.8170 hc         1 990       0.065367
@<TRIPOS>BOND
     1     1     2 1   
     2     2     3 ar  
     3     2    13 ar  
     4     3     4 ar  
     5     3    29 1   
     6     4     5 1   
     7     4    15 ar  
     8     5     6 ar  
     9     5    12 ar  
    10     6     7 ar  
    11     7     8 1   
    12     7    10 ar  
    13     8     9 1   
    14     9    30 1   
    15     9    31 1   
    16     9    32 1   
    17    10    11 ar  
    18    10    33 1   
    19    11    12 ar  
    20    11    34 1   
    21    12    35 1   
    22    13    14 ar  
    23    13    36 1   
    24    14    15 ar  
    25    14    37 1   
    26    15    16 1   
    27    16    17 1   
    28    16    20 1   
    29    16    38 1   
    30    17    18 1   
    31    17    39 1   
    32    18    19 2   
    33    18    27 1   
    34    20    21 1   
    35    20    40 1   
    36    20    41 1   
    37    21    22 ar  
    38    21    27 ar  
    39    22    23 ar  
    40    23    24 1   
    41    23    25 ar  
    42    24    42 1   
    43    24    43 1   
    44    25    26 ar  
    45    26    27 ar  
    46    26    28 1   
    47    28    44 1   
    48    28    45 1   
    49    28    46 1   
@<TRIPOS>SUBSTRUCTURE
     1 990         1 TEMP              0 ****  ****    0 ROOT
