@<TRIPOS>MOLECULE
990
   46    49     1     0     0
SMALL
No Charge or Current Charge


@<TRIPOS>ATOM
      1 F17          1.2350    -5.1350     0.4000 f          1 990      -0.176000
      2 C16          0.9870    -3.8370     0.1190 ca         1 990       0.171000
      3 C18          2.0410    -2.9180     0.0790 ca         1 990      -0.141000
      4 C8           1.8140    -1.5440    -0.2020 cp         1 990      -0.108500
      5 C21          2.9940    -0.6120    -0.1990 cp         1 990       0.434500
      6 N26          2.9120     0.5070     0.5560 nb         1 990      -0.767000
      7 C25          3.9740     1.3370     0.6130 ca         1 990       0.589300
      8 O27          3.9120     2.4800     1.3740 os         1 990      -0.458300
      9 C28          2.7140     2.8410     2.0890 c3         1 990       0.159900
     10 C24          5.1670     1.0820    -0.0790 ca         1 990      -0.181000
     11 C23          5.2780    -0.0760    -0.8610 ca         1 990      -0.045000
     12 C22          4.1710    -0.9340    -0.9120 ca         1 990      -0.187000
     13 C19         -0.3230    -3.4140    -0.1200 ca         1 990      -0.142000
     14 C20         -0.5790    -2.0660    -0.4140 ca         1 990      -0.076000
     15 C7           0.4730    -1.1170    -0.4780 ca         1 990      -0.088300
     16 C6           0.1450     0.3470    -0.8430 c6         1 990       0.175000
     17 N9          -0.0590     1.0840     0.3990 ns         1 990      -0.514900
     18 C1          -1.2500     1.4720     0.9470 c          1 990       0.600600
     19 O2          -1.2500     2.0610     2.0130 o          1 990      -0.570000
     20 C5          -1.0220     0.5500    -1.8350 c6         1 990      -0.150700
     21 C4          -2.3740     0.6950    -1.1580 ca         1 990       0.203300
     22 N15         -3.4470     0.3950    -1.9120 nb         1 990      -0.265000
     23 C13         -4.6360     0.5490    -1.3230 ca         1 990       0.415900
     24 N14         -5.7200     0.2480    -2.0750 nv         1 990      -1.068900
     25 N12         -4.8810     0.9710    -0.0790 nb         1 990      -0.277000
     26 C10         -3.8080     1.2790     0.6800 ca         1 990       0.237300
     27 C3          -2.4920     1.1520     0.1670 ca         1 990      -0.337600
     28 C11         -4.1390     1.7340     2.0940 c3         1 990      -0.154400
     29 H1           3.0480    -3.2690     0.2880 ha         1 990       0.135000
     30 H2           1.8790     3.0040     1.3950 h1         1 990       0.046700
     31 H3           2.4290     2.0560     2.8020 h1         1 990       0.046700
     32 H4           2.8710     3.7690     2.6520 h1         1 990       0.046700
     33 H5           5.9940     1.7800    -0.0010 ha         1 990       0.140000
     34 H6           6.1920    -0.3020    -1.4070 ha         1 990       0.124000
     35 H7           4.2130    -1.8450    -1.5030 ha         1 990       0.134000
     36 H8          -1.1390    -4.1300    -0.0780 ha         1 990       0.136000
     37 H9          -1.6080    -1.7700    -0.5930 ha         1 990       0.127000
     38 H10          1.0360     0.7680    -1.3320 h1         1 990       0.091700
     39 H11          0.7660     1.2600     0.9600 hn         1 990       0.322500
     40 H12         -0.8360     1.4710    -2.4030 hc         1 990       0.081200
     41 H13         -1.0320    -0.2590    -2.5780 hc         1 990       0.081200
     42 H14         -5.5960     0.1560    -3.0800 hn         1 990       0.507000
     43 H15         -6.6320     0.5700    -1.7590 hn         1 990       0.507000
     44 H16         -3.8320     2.7740     2.2520 hc         1 990       0.065367
     45 H17         -5.2140     1.6760     2.3030 hc         1 990       0.065367
     46 H18         -3.6310     1.1090     2.8370 hc         1 990       0.065367
@<TRIPOS>BOND
     1     1     2 1   
     2     2     3 ar  
     3     2    13 ar  
     4     3     4 ar  
     5     3    29 1   
     6     4     5 1   
     7     4    15 ar  
     8     5     6 ar  
     9     5    12 ar  
    10     6     7 ar  
    11     7     8 1   
    12     7    10 ar  
    13     8     9 1   
    14     9    30 1   
    15     9    31 1   
    16     9    32 1   
    17    10    11 ar  
    18    10    33 1   
    19    11    12 ar  
    20    11    34 1   
    21    12    35 1   
    22    13    14 ar  
    23    13    36 1   
    24    14    15 ar  
    25    14    37 1   
    26    15    16 1   
    27    16    17 1   
    28    16    20 1   
    29    16    38 1   
    30    17    18 1   
    31    17    39 1   
    32    18    19 2   
    33    18    27 1   
    34    20    21 1   
    35    20    40 1   
    36    20    41 1   
    37    21    22 ar  
    38    21    27 ar  
    39    22    23 ar  
    40    23    24 1   
    41    23    25 ar  
    42    24    42 1   
    43    24    43 1   
    44    25    26 ar  
    45    26    27 ar  
    46    26    28 1   
    47    28    44 1   
    48    28    45 1   
    49    28    46 1   
@<TRIPOS>SUBSTRUCTURE
     1 990         1 TEMP              0 ****  ****    0 ROOT
