@<TRIPOS>MOLECULE
991
   46    49     1     0     0
SMALL
abcg2


@<TRIPOS>ATOM
      1 C1           4.4800     0.0450    -0.0250 ca         1 991      -0.313900
      2 C2           3.9500    -1.2330    -0.2920 ca         1 991       0.115000
      3 CL2          4.9920    -2.6190    -0.3930 cl         1 991      -0.227000
      4 C3           2.5920    -1.4400    -0.4150 ca         1 991      -0.093000
      5 C4           1.7570    -0.3370    -0.2820 ca         1 991       0.033000
      6 C5           2.2540     0.9650    -0.0090 ca         1 991      -0.058000
      7 C6           3.6280     1.1350     0.1280 ca         1 991      -0.050000
      8 C7           5.9250     0.3010     0.0890 ce         1 991       0.540400
      9 N1           6.7400    -0.0740    -0.8650 nv         1 991      -0.580200
     10 N2           6.3610     0.9480     1.1430 nv         1 991      -0.564300
     11 N3           0.4120    -0.2430    -0.3650 na         1 991      -0.249900
     12 CN4          1.1320     1.8310     0.0620 cc         1 991      -0.351000
     13 C8           0.0100     1.0540    -0.1610 cc         1 991       0.140900
     14 C9          -1.3980     1.4000    -0.2040 cd         1 991      -0.322200
     15 C10         -1.7770     2.7430    -0.0210 cd         1 991      -0.103000
     16 C11         -3.0950     3.1200    -0.0490 cc         1 991      -0.278000
     17 C12         -4.0880     2.1450    -0.2600 cc         1 991      -0.216000
     18 C13         -3.7500     0.8240    -0.4410 cd         1 991      -0.011100
     19 O5          -4.6310    -0.1800    -0.6640 os         1 991      -0.322100
     20 C14         -2.3730     0.3800    -0.4270 c          1 991       0.574500
     21 O6          -2.0980    -0.8480    -0.6070 o          1 991      -0.720100
     22 C1B         -6.7280    -1.1900    -1.0540 c5         1 991      -0.091400
     23 C2B         -6.0230     0.0820    -0.6040 c5         1 991       0.167300
     24 C3B         -6.5090     0.2410     0.8370 c5         1 991      -0.091400
     25 C4B         -6.6460    -1.1940     1.3830 c5         1 991      -0.071900
     26 C5B         -6.6150    -2.1250     0.1510 c5         1 991      -0.071900
     27 HC3          2.1970    -2.4300    -0.6000 ha         1 991       0.145000
     28 HC6          4.0400     2.1180     0.3230 ha         1 991       0.108000
     29 HH11         6.3880    -0.4810    -1.7160 hn         1 991       0.367000
     30 HH12         7.7390     0.0540    -0.8010 hn         1 991       0.367000
     31 HH21         7.3230     1.2390     1.2360 hn         1 991       0.367000
     32 HH22         5.7430     1.1430     1.9130 hn         1 991       0.367000
     33 HN3         -0.3090    -0.9500    -0.5360 hn         1 991       0.423000
     34 HCN4         1.1530     2.8920     0.2530 ha         1 991       0.205000
     35 HC2         -1.0110     3.4930     0.1420 ha         1 991       0.152000
     36 H6          -3.3790     4.1540     0.0930 ha         1 991       0.162000
     37 HC4         -5.1240     2.4610    -0.2720 ha         1 991       0.162000
     38 H1A         -7.7740    -0.9450    -1.2510 hc         1 991       0.046450
     39 H1B         -6.3120    -1.6020    -1.9760 hc         1 991       0.046450
     40 H2A         -6.2800     0.9400    -1.2360 h1         1 991       0.041700
     41 H3A         -5.8520     0.8670     1.4420 hc         1 991       0.046450
     42 H3B         -7.4810     0.7390     0.8150 hc         1 991       0.046450
     43 H4A         -7.5750    -1.3030     1.9430 hc         1 991       0.040200
     44 H4B         -5.8380    -1.4340     2.0750 hc         1 991       0.040200
     45 H5A         -7.4140    -2.8670     0.1710 hc         1 991       0.040200
     46 H5B         -5.6740    -2.6760     0.1130 hc         1 991       0.040200
@<TRIPOS>BOND
     1     1     2 ar  
     2     1     7 ar  
     3     1     8 1   
     4     2     3 1   
     5     2     4 ar  
     6     4     5 ar  
     7     4    27 1   
     8     5     6 ar  
     9     5    11 2   
    10     6     7 ar  
    11     6    12 2   
    12     7    28 1   
    13     8     9 2   
    14     8    10 1   
    15     9    29 1   
    16     9    30 1   
    17    10    31 1   
    18    10    32 1   
    19    11    13 1   
    20    11    33 1   
    21    12    13 1   
    22    12    34 1   
    23    13    14 2   
    24    14    15 1   
    25    14    20 1   
    26    15    16 2   
    27    15    35 1   
    28    16    17 1   
    29    16    36 1   
    30    17    18 2   
    31    17    37 1   
    32    18    19 1   
    33    18    20 1   
    34    19    23 1   
    35    20    21 2   
    36    22    23 1   
    37    22    26 1   
    38    22    38 1   
    39    22    39 1   
    40    23    24 1   
    41    23    40 1   
    42    24    25 1   
    43    24    41 1   
    44    24    42 1   
    45    25    26 1   
    46    25    43 1   
    47    25    44 1   
    48    26    45 1   
    49    26    46 1   
@<TRIPOS>SUBSTRUCTURE
     1 991         1 TEMP              0 ****  ****    0 ROOT
