@<TRIPOS>MOLECULE
991
   46    49     1     0     0
SMALL
No Charge or Current Charge


@<TRIPOS>ATOM
      1 C1           4.5930     0.1100     0.0170 ca         1 991      -0.313900
      2 C2           4.1020    -1.2020    -0.2380 ca         1 991       0.115000
      3 Cl2          5.2020    -2.5740    -0.3500 cl         1 991      -0.227000
      4 C3           2.7200    -1.4460    -0.3820 ca         1 991      -0.093000
      5 C4           1.8420    -0.3640    -0.2670 ca         1 991       0.033000
      6 C5           2.3140     0.9150    -0.0160 ca         1 991      -0.058000
      7 C6           3.6780     1.1870     0.1320 ca         1 991      -0.050000
      8 C7           6.0440     0.3660     0.1650 ce         1 991       0.540400
      9 N1           6.8510     0.1580    -0.9180 nv         1 991      -0.580200
     10 N2           6.4650     1.1560     1.1970 nv         1 991      -0.564300
     11 N3           0.4540    -0.3560    -0.3700 na         1 991      -0.249900
     12 CN4          1.1690     1.7880     0.0440 cc         1 991      -0.351000
     13 C8           0.0330     0.9490    -0.1820 cc         1 991       0.140900
     14 C9          -1.3360     1.2180    -0.2400 cd         1 991      -0.322200
     15 C10         -1.6920     2.6000    -0.0350 cd         1 991      -0.103000
     16 C11         -3.0230     2.9550    -0.0760 cc         1 991      -0.278000
     17 C12         -4.0790     2.0120    -0.3130 cc         1 991      -0.216000
     18 C13         -3.7940     0.6640    -0.5170 cd         1 991      -0.011100
     19 O5          -4.7890    -0.2890    -0.7450 os         1 991      -0.322100
     20 C14         -2.3780     0.1650    -0.4950 c          1 991       0.574500
     21 O6          -2.1050    -1.0260    -0.6750 o          1 991      -0.720100
     22 C1B         -7.0830    -1.0260    -1.0470 c5         1 991      -0.091400
     23 C2B         -6.1730     0.1580    -0.6280 c5         1 991       0.167300
     24 C3B         -6.5800     0.2870     0.8690 c5         1 991      -0.091400
     25 C4B         -6.5280    -1.1850     1.3700 c5         1 991      -0.071900
     26 C5B         -6.9550    -2.0400     0.1330 c5         1 991      -0.071900
     27 HC3          2.3490    -2.4490    -0.5720 ha         1 991       0.145000
     28 HC6          4.0150     2.2050     0.3200 ha         1 991       0.108000
     29 HH11         6.5110    -0.4650    -1.6370 hn         1 991       0.367000
     30 HH12         7.8510     0.2590    -0.8100 hn         1 991       0.367000
     31 HH21         7.4560     1.2930     1.3340 hn         1 991       0.367000
     32 HH22         5.8510     1.2580     1.9940 hn         1 991       0.367000
     33 HN3         -0.1710    -1.1390    -0.5480 hn         1 991       0.423000
     34 HCN4         1.1580     2.8580     0.2220 ha         1 991       0.205000
     35 HC2         -0.9510     3.3720     0.1500 ha         1 991       0.152000
     36 H6          -3.3000     3.9960     0.0780 ha         1 991       0.162000
     37 HC4         -5.0840     2.4180    -0.3210 ha         1 991       0.162000
     38 H1A         -8.1200    -0.6910    -1.1610 hc         1 991       0.046450
     39 H1B         -6.7850    -1.4630    -2.0060 hc         1 991       0.046450
     40 H2A         -6.3620     1.0440    -1.2470 h1         1 991       0.041700
     41 H3A         -5.9180     0.9410     1.4470 hc         1 991       0.046450
     42 H3B         -7.5910     0.7000     0.9620 hc         1 991       0.046450
     43 H4A         -7.1870    -1.3450     2.2310 hc         1 991       0.040200
     44 H4B         -5.5150    -1.4520     1.6930 hc         1 991       0.040200
     45 H5A         -7.8990    -2.5690     0.3070 hc         1 991       0.040200
     46 H5B         -6.2010    -2.8060    -0.0840 hc         1 991       0.040200
@<TRIPOS>BOND
     1     1     2 ar  
     2     1     7 ar  
     3     1     8 1   
     4     2     3 1   
     5     2     4 ar  
     6     4     5 ar  
     7     4    27 1   
     8     5     6 ar  
     9     5    11 2   
    10     6     7 ar  
    11     6    12 2   
    12     7    28 1   
    13     8     9 2   
    14     8    10 1   
    15     9    29 1   
    16     9    30 1   
    17    10    31 1   
    18    10    32 1   
    19    11    13 1   
    20    11    33 1   
    21    12    13 1   
    22    12    34 1   
    23    13    14 2   
    24    14    15 1   
    25    14    20 1   
    26    15    16 2   
    27    15    35 1   
    28    16    17 1   
    29    16    36 1   
    30    17    18 2   
    31    17    37 1   
    32    18    19 1   
    33    18    20 1   
    34    19    23 1   
    35    20    21 2   
    36    22    23 1   
    37    22    26 1   
    38    22    38 1   
    39    22    39 1   
    40    23    24 1   
    41    23    40 1   
    42    24    25 1   
    43    24    41 1   
    44    24    42 1   
    45    25    26 1   
    46    25    43 1   
    47    25    44 1   
    48    26    45 1   
    49    26    46 1   
@<TRIPOS>SUBSTRUCTURE
     1 991         1 TEMP              0 ****  ****    0 ROOT
