@<TRIPOS>MOLECULE
992
   48    52     1     0     0
SMALL
bcc


@<TRIPOS>ATOM
      1 C6           5.3300    -0.8100    -0.9100 ca         1 992      -0.100800
      2 C21          4.2080     0.0220    -0.9110 ca         1 992      -0.053000
      3 C5           5.5740    -1.6400     0.2090 ca         1 992      -0.046200
      4 N7           6.7160    -2.3480    -0.0320 na         1 992      -0.063400
      5 C4           4.7220    -1.6550     1.3120 ca         1 992      -0.154000
      6 C3           3.6210    -0.8230     1.2800 ca         1 992      -0.091000
      7 C2           3.3560     0.0200     0.1810 cp         1 992      -0.056000
      8 C1           7.2970    -3.3190     0.8600 c3         1 992       0.039600
      9 C7           2.1320     0.8550     0.1960 cp         1 992      -0.050000
     10 C10          2.1690     2.2580     0.1270 ca         1 992       0.036400
     11 C11          1.0300     3.0490     0.1410 ca         1 992      -0.127000
     12 C12         -0.1780     2.3850     0.2330 ca         1 992      -0.082200
     13 C13         -0.2680     0.9870     0.3170 ca         1 992       0.105400
     14 C14          0.8920     0.2260     0.2960 ca         1 992      -0.065000
     15 N21         -1.4800     2.8220     0.2740 na         1 992      -0.285300
     16 N22         -1.5870     0.5960     0.4040 nc         1 992      -0.617100
     17 C23         -2.2480     1.7110     0.3760 cd         1 992       0.654100
     18 O25         -3.5610     1.8670     0.4360 os         1 992      -0.330700
     19 C26         -4.3320     0.7200     0.5850 ca         1 992       0.057100
     20 C27         -4.6010     0.2410     1.8520 ca         1 992      -0.144000
     21 C28         -5.4120    -0.8770     1.9680 ca         1 992      -0.158000
     22 C29         -5.9730    -1.5130     0.8600 ca         1 992      -0.035300
     23 C30         -5.6870    -1.0040    -0.4180 ca         1 992      -0.120600
     24 C31         -4.8480     0.1040    -0.5350 ca         1 992      -0.087000
     25 C32         -6.8290    -2.7240     1.1060 c3         1 992      -0.027800
     26 CL1          3.6990     3.0810     0.0680 cl         1 992      -0.133400
     27 C8           6.3840    -1.0600    -1.8410 cc         1 992      -0.182200
     28 C9           7.1940    -1.9960    -1.2650 cd         1 992      -0.121100
     29 C18         -6.2530    -1.5850    -1.7140 c          1 992       0.925200
     30 O19         -5.5950    -1.3620    -2.7480 o          1 992      -0.819300
     31 O20         -7.3270    -2.2070    -1.6370 o          1 992      -0.819300
     32 H21          4.0000     0.6540    -1.7660 ha         1 992       0.140000
     33 H8           6.5240    -0.6070    -2.8090 ha         1 992       0.153000
     34 H4           4.9090    -2.2920     2.1670 ha         1 992       0.127000
     35 H11C         6.6360    -4.1750     0.9960 h1         1 992       0.044033
     36 H12C         8.2360    -3.6710     0.4420 h1         1 992       0.044033
     37 H13C         7.5020    -2.8770     1.8350 h1         1 992       0.044033
     38 H9           8.0960    -2.4510    -1.6440 h4         1 992       0.153000
     39 H3           2.9450    -0.8100     2.1250 ha         1 992       0.134000
     40 H14          0.8400    -0.8540     0.3440 ha         1 992       0.156000
     41 H11          1.0930     4.1270     0.0930 ha         1 992       0.143000
     42 HA          -1.8080     3.7760     0.2430 hn         1 992       0.312700
     43 H27         -4.1910     0.7230     2.7300 ha         1 992       0.118000
     44 H31         -4.6110     0.4900    -1.5180 ha         1 992       0.162000
     45 H28         -5.6140    -1.2690     2.9570 ha         1 992       0.108000
     46 H321        -7.8720    -2.5410     0.8560 hc         1 992       0.038367
     47 H322        -6.5080    -3.5770     0.5100 hc         1 992       0.038367
     48 H323        -6.7760    -3.0100     2.1570 hc         1 992       0.038367
@<TRIPOS>BOND
     1     1     2 ar  
     2     1     3 ar  
     3     1    27 1   
     4     2     7 ar  
     5     2    32 1   
     6     3     4 1   
     7     3     5 ar  
     8     4     8 1   
     9     4    28 1   
    10     5     6 ar  
    11     5    34 1   
    12     6     7 ar  
    13     6    39 1   
    14     7     9 1   
    15     8    35 1   
    16     8    36 1   
    17     8    37 1   
    18     9    10 ar  
    19     9    14 ar  
    20    10    11 ar  
    21    10    26 1   
    22    11    12 ar  
    23    11    41 1   
    24    12    13 ar  
    25    12    15 1   
    26    13    14 ar  
    27    13    16 1   
    28    14    40 1   
    29    15    17 1   
    30    15    42 1   
    31    16    17 2   
    32    17    18 1   
    33    18    19 1   
    34    19    20 ar  
    35    19    24 ar  
    36    20    21 ar  
    37    20    43 1   
    38    21    22 ar  
    39    21    45 1   
    40    22    23 ar  
    41    22    25 1   
    42    23    24 ar  
    43    23    29 1   
    44    24    44 1   
    45    25    46 1   
    46    25    47 1   
    47    25    48 1   
    48    27    28 2   
    49    27    33 1   
    50    28    38 1   
    51    29    30 1   
    52    29    31 1   
@<TRIPOS>SUBSTRUCTURE
     1 992         1 TEMP              0 ****  ****    0 ROOT
