@<TRIPOS>MOLECULE
992
   48    52     1     0     0
SMALL
No Charge or Current Charge


@<TRIPOS>ATOM
      1 C6           5.6220    -0.7330    -0.7500 ca         1 992      -0.100800
      2 C21          4.4720     0.0600    -0.8450 ca         1 992      -0.035000
      3 C5           5.8300    -1.5940     0.2910 ca         1 992      -0.046200
      4 N7           7.0410    -2.2530     0.1320 na         1 992      -0.092700
      5 C4           4.8870    -1.7240     1.3210 ca         1 992      -0.136000
      6 C3           3.7160    -0.9380     1.2560 ca         1 992      -0.073000
      7 C2           3.4920    -0.0280     0.1810 cp         1 992      -0.056000
      8 C1           7.5750    -3.2490     1.0730 c3         1 992       0.068900
      9 C7           2.2360     0.7790     0.1260 cp         1 992      -0.050000
     10 C10          2.2430     2.2020    -0.0360 ca         1 992       0.128000
     11 C11          1.0360     2.9280    -0.0890 ca         1 992      -0.109000
     12 C12         -0.1650     2.2200     0.0260 ca         1 992      -0.082200
     13 C13         -0.2060     0.8600     0.1910 ca         1 992       0.105400
     14 C14          0.9820     0.1180     0.2470 ca         1 992      -0.047000
     15 N21         -1.4470     2.6980     0.0060 na         1 992      -0.335600
     16 N22         -1.5060     0.3890     0.2850 nc         1 992      -0.617100
     17 C23         -2.1920     1.5390     0.1720 cd         1 992       0.654100
     18 O25         -3.5550     1.6590     0.1850 os         1 992      -0.330700
     19 C26         -4.3970     0.5960     0.4130 ca         1 992       0.057100
     20 C27         -4.3210    -0.1360     1.6080 ca         1 992      -0.126000
     21 C28         -5.2060    -1.2040     1.8320 ca         1 992      -0.140000
     22 C29         -6.1830    -1.5420     0.8730 ca         1 992      -0.035300
     23 C30         -6.2780    -0.7850    -0.3250 ca         1 992      -0.120600
     24 C31         -5.3760     0.2800    -0.5410 ca         1 992      -0.069000
     25 C32         -7.1030    -2.7280     1.1470 c3         1 992      -0.027800
     26 Cl1          3.7470     3.1200    -0.1290 cl         1 992      -0.225000
     27 C8           6.7500    -0.8410    -1.6270 cc         1 992      -0.232200
     28 C9           7.6130    -1.7780    -1.0710 cd         1 992      -0.171100
     29 C18         -7.3130    -1.0820    -1.3850 c          1 992       0.714600
     30 O19         -6.9290    -1.2040    -2.5400 o          1 992      -0.714000
     31 O20         -8.4920    -1.1110    -1.0620 o          1 992      -0.714000
     32 H21          4.3310     0.7230    -1.6950 ha         1 992       0.122000
     33 H8           6.9150    -0.2990    -2.5570 ha         1 992       0.203000
     34 H4           5.0470    -2.4100     2.1500 ha         1 992       0.109000
     35 H11C         6.8790    -4.0930     1.1480 h1         1 992       0.044033
     36 H12C         8.5470    -3.6120     0.7160 h1         1 992       0.044033
     37 H13C         7.7010    -2.7900     2.0610 h1         1 992       0.044033
     38 H9           8.5720    -2.1380    -1.4330 h4         1 992       0.203000
     39 H3           2.9760    -1.0250     2.0480 ha         1 992       0.116000
     40 H14          0.9370    -0.9610     0.3720 ha         1 992       0.138000
     41 H11          1.0410     4.0080    -0.2070 ha         1 992       0.125000
     42 HA          -1.7950     3.6400    -0.1010 hn         1 992       0.363000
     43 H27         -3.5780     0.1170     2.3610 ha         1 992       0.100000
     44 H31         -5.4390     0.8660    -1.4550 ha         1 992       0.144000
     45 H28         -5.1300    -1.7710     2.7560 ha         1 992       0.090000
     46 H321        -8.1060    -2.3900     1.4320 hc         1 992       0.038367
     47 H322        -7.1980    -3.3730     0.2650 hc         1 992       0.038367
     48 H323        -6.7240    -3.3540     1.9640 hc         1 992       0.038367
@<TRIPOS>BOND
     1     1     2 ar  
     2     1     3 ar  
     3     1    27 1   
     4     2     7 ar  
     5     2    32 1   
     6     3     4 1   
     7     3     5 ar  
     8     4     8 1   
     9     4    28 1   
    10     5     6 ar  
    11     5    34 1   
    12     6     7 ar  
    13     6    39 1   
    14     7     9 1   
    15     8    35 1   
    16     8    36 1   
    17     8    37 1   
    18     9    10 ar  
    19     9    14 ar  
    20    10    11 ar  
    21    10    26 1   
    22    11    12 ar  
    23    11    41 1   
    24    12    13 ar  
    25    12    15 1   
    26    13    14 ar  
    27    13    16 1   
    28    14    40 1   
    29    15    17 1   
    30    15    42 1   
    31    16    17 2   
    32    17    18 1   
    33    18    19 1   
    34    19    20 ar  
    35    19    24 ar  
    36    20    21 ar  
    37    20    43 1   
    38    21    22 ar  
    39    21    45 1   
    40    22    23 ar  
    41    22    25 1   
    42    23    24 ar  
    43    23    29 1   
    44    24    44 1   
    45    25    46 1   
    46    25    47 1   
    47    25    48 1   
    48    27    28 2   
    49    27    33 1   
    50    28    38 1   
    51    29    30 1   
    52    29    31 1   
@<TRIPOS>SUBSTRUCTURE
     1 992         1 TEMP              0 ****  ****    0 ROOT
