@<TRIPOS>MOLECULE
994
   54    57     1     0     0
SMALL
bcc


@<TRIPOS>ATOM
      1 C1           6.0890     0.5010    10.5570 ca         1 994       0.036100
      2 C2           4.8840     0.9500     9.9930 ca         1 994       0.149100
      3 C3           4.8720     1.5020     8.7180 ca         1 994      -0.223500
      4 C4           6.0530     1.5630     7.9810 ca         1 994       0.195600
      5 C5           7.2420     1.0920     8.5160 ca         1 994      -0.223500
      6 C6           7.2530     0.5610     9.8010 ca         1 994       0.149100
      7 N9           6.0980     2.1760     6.7160 nu         1 994      -0.737300
      8 C10          5.1870     2.1180     5.7320 ca         1 994       0.948900
      9 N11          4.1460     1.2950     5.8470 nb         1 994      -0.849000
     10 C12          3.2630     1.3060     4.8560 cp         1 994       0.814500
     11 N13          3.3820     2.0820     3.7760 nb         1 994      -0.787000
     12 C14          4.4700     2.8330     3.7450 ca         1 994       0.721900
     13 N15          5.4040     2.9030     4.6700 nb         1 994      -0.809000
     14 O17          8.4130     0.0780    10.3150 os         1 994      -0.315400
     15 C18          9.1420     1.0100    11.1030 c3         1 994       0.123200
     16 O22          6.1210     0.0510    11.8360 os         1 994      -0.317900
     17 C23          5.8630    -1.3380    11.9940 c3         1 994       0.125700
     18 O27          3.8020     0.8360    10.7760 os         1 994      -0.315400
     19 C28          2.5440     1.2170    10.2550 c3         1 994       0.123200
     20 C32          2.0940     0.4230     4.9360 cp         1 994      -0.370800
     21 C33          1.1030     0.5480     3.9660 ca         1 994       0.003000
     22 C34         -0.0160    -0.2620     3.9790 ca         1 994      -0.329300
     23 C35         -0.0970    -1.2080     4.9870 ca         1 994       0.485200
     24 N36          0.8220    -1.3630     5.9240 nb         1 994      -0.763000
     25 C37          1.9000    -0.5810     5.9330 ca         1 994       0.736200
     26 N41          2.8240    -0.7830     6.9060 nu         1 994      -0.749300
     27 C42          2.9200    -1.8020     7.8550 ca         1 994       0.164600
     28 C43          4.2110    -2.1110     8.2980 ca         1 994      -0.158500
     29 C44          4.4170    -3.0870     9.2550 ca         1 994      -0.109500
     30 C45          3.3410    -3.7770     9.7980 ca         1 994      -0.154000
     31 C46          2.0590    -3.4640     9.3720 ca         1 994      -0.109500
     32 C47          1.8370    -2.4850     8.4120 ca         1 994      -0.158500
     33 H3           3.9610     1.9060     8.3040 ha         1 994       0.154500
     34 H5           8.1600     1.1270     7.9410 ha         1 994       0.154500
     35 HN9          6.9170     2.7280     6.5050 hn         1 994       0.466800
     36 H14          4.6060     3.4580     2.8680 h5         1 994       0.054100
     37 H181        10.0660     0.5200    11.4050 h1         1 994       0.043867
     38 H182         8.5900     1.3040    11.9980 h1         1 994       0.043867
     39 H183         9.3910     1.9080    10.5310 h1         1 994       0.043867
     40 H231         6.5590    -1.9460    11.4120 h1         1 994       0.039033
     41 H232         4.8430    -1.5950    11.7030 h1         1 994       0.039033
     42 H233         5.9960    -1.5690    13.0500 h1         1 994       0.039033
     43 H281         2.2870     0.6500     9.3560 h1         1 994       0.043867
     44 H282         2.5020     2.2850    10.0260 h1         1 994       0.043867
     45 H283         1.8120     0.9980    11.0280 h1         1 994       0.043867
     46 H33          1.2230     1.2980     3.1960 ha         1 994       0.159000
     47 H34         -0.7960    -0.1670     3.2370 ha         1 994       0.148000
     48 H35         -0.9490    -1.8760     5.0440 h4         1 994       0.018100
     49 HN41         3.6290    -0.1640     6.8400 hn         1 994       0.485800
     50 H43          5.0600    -1.5860     7.8750 ha         1 994       0.146500
     51 H44          5.4270    -3.3140     9.5700 ha         1 994       0.129500
     52 H45          3.4990    -4.5460    10.5440 ha         1 994       0.131000
     53 H46          1.2080    -3.9860     9.7910 ha         1 994       0.129500
     54 H47          0.8300    -2.2600     8.1010 ha         1 994       0.146500
@<TRIPOS>BOND
     1     1     2 ar  
     2     1     6 ar  
     3     1    16 1   
     4     2     3 ar  
     5     2    18 1   
     6     3     4 ar  
     7     3    33 1   
     8     4     5 ar  
     9     4     7 1   
    10     5     6 ar  
    11     5    34 1   
    12     6    14 1   
    13     7     8 1   
    14     7    35 1   
    15     8     9 ar  
    16     8    13 ar  
    17     9    10 ar  
    18    10    11 ar  
    19    10    20 1   
    20    11    12 ar  
    21    12    13 ar  
    22    12    36 1   
    23    14    15 1   
    24    15    37 1   
    25    15    38 1   
    26    15    39 1   
    27    16    17 1   
    28    17    40 1   
    29    17    41 1   
    30    17    42 1   
    31    18    19 1   
    32    19    43 1   
    33    19    44 1   
    34    19    45 1   
    35    20    21 ar  
    36    20    25 ar  
    37    21    22 ar  
    38    21    46 1   
    39    22    23 ar  
    40    22    47 1   
    41    23    24 ar  
    42    23    48 1   
    43    24    25 ar  
    44    25    26 1   
    45    26    27 1   
    46    26    49 1   
    47    27    28 ar  
    48    27    32 ar  
    49    28    29 ar  
    50    28    50 1   
    51    29    30 ar  
    52    29    51 1   
    53    30    31 ar  
    54    30    52 1   
    55    31    32 ar  
    56    31    53 1   
    57    32    54 1   
@<TRIPOS>SUBSTRUCTURE
     1 994         1 TEMP              0 ****  ****    0 ROOT
