@<TRIPOS>MOLECULE
994
   54    57     1     0     0
SMALL
No Charge or Current Charge


@<TRIPOS>ATOM
      1 C1           6.2750     0.6790    10.5070 ca         1 994       0.036100
      2 C2           5.0000     0.9780     9.9580 ca         1 994       0.149100
      3 C3           4.9050     1.5240     8.6610 ca         1 994      -0.205500
      4 C4           6.0570     1.7750     7.9050 ca         1 994       0.334000
      5 C5           7.3130     1.5150     8.4570 ca         1 994      -0.205500
      6 C6           7.4460     0.9740     9.7450 ca         1 994       0.149100
      7 N9           5.9900     2.3200     6.6220 nu         1 994      -0.930900
      8 C10          5.0670     2.2420     5.5940 ca         1 994       0.422900
      9 N11          4.0610     1.3660     5.7110 nb         1 994      -0.323000
     10 C12          3.1880     1.3000     4.6870 cp         1 994       0.288500
     11 N13          3.3070     2.0740     3.5850 nb         1 994      -0.261000
     12 C14          4.3590     2.9200     3.5600 ca         1 994       0.195900
     13 N15          5.2760     3.0440     4.5410 nb         1 994      -0.283000
     14 O17          8.7530     0.7650    10.1630 os         1 994      -0.338600
     15 C18          9.1280     0.2300    11.4460 c3         1 994       0.146400
     16 O22          6.3650     0.1590    11.7870 os         1 994      -0.341100
     17 C23          5.8180    -1.1370    12.0930 c3         1 994       0.148900
     18 O27          3.8680     0.7670    10.7290 os         1 994      -0.338600
     19 C28          2.5390     1.0640    10.2650 c3         1 994       0.146400
     20 C32          2.0210     0.3420     4.7640 cp         1 994      -0.305500
     21 C33          0.9570     0.4560     3.8300 ca         1 994       0.021000
     22 C34         -0.1150    -0.4400     3.8950 ca         1 994      -0.246000
     23 C35         -0.1130    -1.4340     4.8750 ca         1 994       0.419900
     24 N36          0.8800    -1.5690     5.7710 nb         1 994      -0.763000
     25 C37          1.8970    -0.7040     5.7260 ca         1 994       0.670900
     26 N41          2.8730    -0.9700     6.6590 nu         1 994      -0.942900
     27 C42          3.0120    -1.7860     7.7840 ca         1 994       0.303000
     28 C43          4.3140    -2.1470     8.1760 ca         1 994      -0.140500
     29 C44          4.5250    -2.9420     9.3150 ca         1 994      -0.091500
     30 C45          3.4320    -3.3640    10.0880 ca         1 994      -0.136000
     31 C46          2.1290    -2.9910     9.7190 ca         1 994      -0.091500
     32 C47          1.9210    -2.2040     8.5720 ca         1 994      -0.140500
     33 H3           3.9410     1.7850     8.2430 ha         1 994       0.136500
     34 H5           8.2080     1.7260     7.8800 ha         1 994       0.136500
     35 HN9          6.8360     2.8130     6.3390 hn         1 994       0.522000
     36 H14          4.4760     3.5500     2.6800 h5         1 994       0.054100
     37 H181        10.2200     0.1790    11.5280 h1         1 994       0.043867
     38 H182         8.7350    -0.7860    11.5780 h1         1 994       0.043867
     39 H183         8.7610     0.8690    12.2600 h1         1 994       0.043867
     40 H231         6.2910    -1.9080    11.4720 h1         1 994       0.039033
     41 H232         4.7360    -1.1750    11.9270 h1         1 994       0.039033
     42 H233         6.0060    -1.3880    13.1440 h1         1 994       0.039033
     43 H281         2.3060     0.4990     9.3550 h1         1 994       0.043867
     44 H282         2.4320     2.1350    10.0510 h1         1 994       0.043867
     45 H283         1.8010     0.7950    11.0300 h1         1 994       0.043867
     46 H33          0.9520     1.2280     3.0620 ha         1 994       0.141000
     47 H34         -0.9400    -0.3720     3.1930 ha         1 994       0.130000
     48 H35         -0.9320    -2.1500     4.9440 h4         1 994       0.018100
     49 HN41         3.6980    -0.4140     6.4590 hn         1 994       0.541000
     50 H43          5.1680    -1.8200     7.5900 ha         1 994       0.128500
     51 H44          5.5360    -3.2290     9.5980 ha         1 994       0.111500
     52 H45          3.5930    -3.9760    10.9730 ha         1 994       0.113000
     53 H46          1.2810    -3.3080    10.3220 ha         1 994       0.111500
     54 H47          0.9100    -1.9050     8.3160 ha         1 994       0.128500
@<TRIPOS>BOND
     1     1     2 ar  
     2     1     6 ar  
     3     1    16 1   
     4     2     3 ar  
     5     2    18 1   
     6     3     4 ar  
     7     3    33 1   
     8     4     5 ar  
     9     4     7 1   
    10     5     6 ar  
    11     5    34 1   
    12     6    14 1   
    13     7     8 1   
    14     7    35 1   
    15     8     9 ar  
    16     8    13 ar  
    17     9    10 ar  
    18    10    11 ar  
    19    10    20 1   
    20    11    12 ar  
    21    12    13 ar  
    22    12    36 1   
    23    14    15 1   
    24    15    37 1   
    25    15    38 1   
    26    15    39 1   
    27    16    17 1   
    28    17    40 1   
    29    17    41 1   
    30    17    42 1   
    31    18    19 1   
    32    19    43 1   
    33    19    44 1   
    34    19    45 1   
    35    20    21 ar  
    36    20    25 ar  
    37    21    22 ar  
    38    21    46 1   
    39    22    23 ar  
    40    22    47 1   
    41    23    24 ar  
    42    23    48 1   
    43    24    25 ar  
    44    25    26 1   
    45    26    27 1   
    46    26    49 1   
    47    27    28 ar  
    48    27    32 ar  
    49    28    29 ar  
    50    28    50 1   
    51    29    30 ar  
    52    29    51 1   
    53    30    31 ar  
    54    30    52 1   
    55    31    32 ar  
    56    31    53 1   
    57    32    54 1   
@<TRIPOS>SUBSTRUCTURE
     1 994         1 TEMP              0 ****  ****    0 ROOT
