@<TRIPOS>MOLECULE
995
   66    66     1     0     0
SMALL
No Charge or Current Charge


@<TRIPOS>ATOM
      1 CX           2.7900     2.1760    -1.1500 c          1 995       0.494600
      2 CY           2.1090     0.9650    -0.4450 c3         1 995       0.038700
      3 CZ           3.8580     2.8960    -0.3890 cc         1 995       0.321900
      4 OX           2.4380     2.5140    -2.2820 o          1 995      -0.513100
      5 S1           4.6590     4.2610    -1.1320 ss         1 995       0.085600
      6 C2           5.6090     4.4190     0.3160 cc         1 995      -0.284000
      7 C3           5.2750     3.4640     1.2450 cd         1 995       0.270900
      8 N1           4.2730     2.5920     0.8450 nd         1 995      -0.609000
      9 C6           2.9810    -0.3160    -0.5440 c3         1 995      -0.082400
     10 C7           2.4320    -1.5310     0.2410 c3         1 995      -0.078400
     11 N2           0.7500     0.7500    -0.9970 ns         1 995      -0.494900
     12 C8          -0.3730     0.4430    -0.2540 c          1 995       0.591100
     13 C9          -1.6830     0.2610    -1.0790 c3         1 995       0.041700
     14 C10         -2.1370     1.5870    -1.7720 c3         1 995      -0.066700
     15 C11         -3.2900     1.3670    -2.7790 c3         1 995      -0.090600
     16 C12         -2.4910     2.7060    -0.7610 c3         1 995      -0.090600
     17 N3          -2.7510    -0.3070    -0.2230 ns         1 995      -0.488900
     18 C13         -3.6660    -1.2580    -0.6140 c          1 995       0.603100
     19 C14         -4.6920    -1.6440     0.4570 c3         1 995      -0.153400
     20 C15         -6.0820    -1.0320     0.1460 c3         1 995      -0.065400
     21 C16         -7.2200    -1.4820     1.1020 c3         1 995      -0.062700
     22 C17         -6.9700    -1.0690     2.5730 c3         1 995      -0.087600
     23 C18         -8.5900    -0.9580     0.6140 c3         1 995      -0.087600
     24 O2          -3.6440    -1.7770    -1.7200 o          1 995      -0.603100
     25 O3          -0.3260     0.3290     0.9650 o          1 995      -0.594100
     26 C19          3.3680    -2.7550     0.1800 c3         1 995       0.166800
     27 N4           2.7830    -3.8800     0.9410 n7         1 995      -0.858400
     28 C20          3.5800    -5.0050     1.0520 c3         1 995       0.627900
     29 N5           2.7060    -5.8590     1.6310 n8         1 995      -1.020700
     30 N6           3.5380    -5.6240    -0.1390 n8         1 995      -1.020700
     31 HY           2.0160     1.2380     0.6160 h1         1 995       0.110700
     32 H2           6.3500     5.2020     0.3920 h4         1 995       0.163000
     33 H3           5.7220     3.3530     2.2250 h4         1 995       0.045100
     34 H61          3.0940    -0.5920    -1.6010 hc         1 995       0.053700
     35 H62          3.9890    -0.0900    -0.1720 hc         1 995       0.053700
     36 H71          2.2780    -1.2440     1.2880 hc         1 995       0.054700
     37 H72          1.4540    -1.8170    -0.1640 hc         1 995       0.054700
     38 HN2          0.6230     0.8490    -1.9990 hn         1 995       0.322500
     39 H9          -1.4400    -0.4690    -1.8620 h1         1 995       0.078700
     40 H10         -1.2870     1.9530    -2.3630 hc         1 995       0.054700
     41 H111        -4.2150     1.0750    -2.2670 hc         1 995       0.040033
     42 H112        -3.4930     2.2880    -3.3400 hc         1 995       0.040033
     43 H113        -3.0320     0.5830    -3.5010 hc         1 995       0.040033
     44 H121        -1.6470     2.9180    -0.0940 hc         1 995       0.040033
     45 H122        -2.7390     3.6360    -1.2880 hc         1 995       0.040033
     46 H123        -3.3540     2.4260    -0.1460 hc         1 995       0.040033
     47 HN3         -2.8210     0.0260     0.7320 hn         1 995       0.319500
     48 H141        -4.3560    -1.2810     1.4350 hc         1 995       0.058700
     49 H142        -4.7870    -2.7360     0.4730 hc         1 995       0.058700
     50 H151        -6.3590    -1.3080    -0.8800 hc         1 995       0.053200
     51 H152        -6.0040     0.0630     0.1610 hc         1 995       0.053200
     52 H16         -7.2670    -2.5780     1.0720 hc         1 995       0.045700
     53 H171        -6.8410     0.0160     2.6580 hc         1 995       0.032033
     54 H172        -7.8170    -1.3630     3.2060 hc         1 995       0.032033
     55 H173        -6.0760    -1.5580     2.9760 hc         1 995       0.032033
     56 H181        -8.6140     0.1390     0.6210 hc         1 995       0.032033
     57 H182        -8.7950    -1.3000    -0.4080 hc         1 995       0.032033
     58 H183        -9.3980    -1.3230     1.2590 hc         1 995       0.032033
     59 H191         3.5210    -3.0290    -0.8730 h1         1 995       0.034200
     60 H192         4.3460    -2.4770     0.5990 h1         1 995       0.034200
     61 HN4          2.6780    -3.5410     1.8990 hn         1 995       0.416000
     62 H20          4.5640    -4.9720     1.5330 h3         1 995      -0.003300
     63 HN51         2.8560    -5.7940     2.6380 hn         1 995       0.404250
     64 HN52         1.8090    -5.4030     1.4740 hn         1 995       0.404250
     65 HN61         3.2400    -6.5580     0.1290 hn         1 995       0.404250
     66 HN62         2.6860    -5.2210    -0.5120 hn         1 995       0.404250
@<TRIPOS>BOND
     1     1     2 1   
     2     1     3 1   
     3     1     4 2   
     4     2     9 1   
     5     2    11 1   
     6     2    31 1   
     7     3     5 1   
     8     3     8 2   
     9     5     6 1   
    10     6     7 2   
    11     6    32 1   
    12     7     8 1   
    13     7    33 1   
    14     9    10 1   
    15     9    34 1   
    16     9    35 1   
    17    10    26 1   
    18    10    36 1   
    19    10    37 1   
    20    11    12 1   
    21    11    38 1   
    22    12    13 1   
    23    12    25 2   
    24    13    14 1   
    25    13    17 1   
    26    13    39 1   
    27    14    15 1   
    28    14    16 1   
    29    14    40 1   
    30    15    41 1   
    31    15    42 1   
    32    15    43 1   
    33    16    44 1   
    34    16    45 1   
    35    16    46 1   
    36    17    18 1   
    37    17    47 1   
    38    18    19 1   
    39    18    24 2   
    40    19    20 1   
    41    19    48 1   
    42    19    49 1   
    43    20    21 1   
    44    20    50 1   
    45    20    51 1   
    46    21    22 1   
    47    21    23 1   
    48    21    52 1   
    49    22    53 1   
    50    22    54 1   
    51    22    55 1   
    52    23    56 1   
    53    23    57 1   
    54    23    58 1   
    55    26    27 1   
    56    26    59 1   
    57    26    60 1   
    58    27    28 1   
    59    27    61 1   
    60    28    29 1   
    61    28    30 1   
    62    28    62 1   
    63    29    63 1   
    64    29    64 1   
    65    30    65 1   
    66    30    66 1   
@<TRIPOS>SUBSTRUCTURE
     1 995         1 TEMP              0 ****  ****    0 ROOT
