@<TRIPOS>MOLECULE
995
   66    66     1     0     0
SMALL
bcc


@<TRIPOS>ATOM
      1 CX           1.9510     1.7370     0.0120 c          1 995       0.494600
      2 CY           1.5260     0.2880     0.1930 c3         1 995       0.038700
      3 CZ           2.7390     2.3400     1.1000 cc         1 995       0.321900
      4 OX           1.7070     2.3800    -0.9820 o          1 995      -0.513100
      5 S1           3.3420     3.9440     0.9270 ss         1 995      -0.059300
      6 C2           4.0390     3.8160     2.4730 cc         1 995      -0.222400
      7 C3           3.7740     2.5880     3.0100 cd         1 995       0.336200
      8 N1           3.0390     1.7650     2.2250 nd         1 995      -0.609000
      9 C6           2.6770    -0.6250    -0.2380 c3         1 995      -0.082400
     10 C7           2.4150    -2.0960     0.0600 c3         1 995      -0.078400
     11 N2           0.3390     0.0130    -0.5690 ns         1 995      -0.561900
     12 C8          -0.8260     0.6240    -0.2880 c          1 995       0.658100
     13 C9          -1.9500     0.3330    -1.2820 c3         1 995       0.041700
     14 C10         -1.7480     1.1210    -2.5910 c3         1 995      -0.066700
     15 C11         -2.7850     0.7130    -3.6320 c3         1 995      -0.090600
     16 C12         -1.7300     2.6340    -2.3950 c3         1 995      -0.090600
     17 N3          -3.2280     0.6140    -0.6910 ns         1 995      -0.555900
     18 C13         -3.7140    -0.1150     0.3310 c          1 995       0.670100
     19 C14         -5.0000     0.3960     0.9400 c3         1 995      -0.153400
     20 C15         -5.9810    -0.7250     1.2600 c3         1 995      -0.065400
     21 C16         -7.2330    -0.2620     2.0070 c3         1 995      -0.062700
     22 C17         -8.0610     0.7290     1.1940 c3         1 995      -0.087600
     23 C18         -8.0850    -1.4660     2.3950 c3         1 995      -0.087600
     24 O2          -3.1450    -1.1200     0.7350 o          1 995      -0.603100
     25 O3          -0.9610     1.3630     0.6710 o          1 995      -0.594100
     26 C19          3.6200    -2.9570    -0.2860 c3         1 995       0.166800
     27 N4           3.3660    -4.3520     0.0130 n7         1 995      -0.803200
     28 C20          4.4740    -5.2250    -0.3210 c3         1 995       0.627900
     29 N5           4.2560    -6.4890     0.3660 n8         1 995      -0.910300
     30 N6           4.5230    -5.3850    -1.7510 n8         1 995      -0.910300
     31 HY           1.3310     0.1130     1.2550 h1         1 995       0.110700
     32 H2           4.5990     4.6260     2.9140 h4         1 995       0.181000
     33 H3           4.1060     2.2580     3.9840 h4         1 995       0.045100
     34 H61          2.8750    -0.4820    -1.3050 hc         1 995       0.053700
     35 H62          3.5800    -0.3070     0.2890 hc         1 995       0.053700
     36 H71          2.1750    -2.2080     1.1230 hc         1 995       0.054700
     37 H72          1.5470    -2.4580    -0.4960 hc         1 995       0.054700
     38 HN2          0.4190    -0.5310    -1.4140 hn         1 995       0.322500
     39 H9          -1.9070    -0.7320    -1.5350 h1         1 995       0.078700
     40 H10         -0.7650     0.8250    -2.9700 hc         1 995       0.054700
     41 H111        -3.7900     1.0300    -3.3500 hc         1 995       0.040033
     42 H112        -2.5550     1.1740    -4.5930 hc         1 995       0.040033
     43 H113        -2.8030    -0.3690    -3.7770 hc         1 995       0.040033
     44 H121        -0.9810     2.9490    -1.6700 hc         1 995       0.040033
     45 H122        -1.4960     3.1240    -3.3410 hc         1 995       0.040033
     46 H123        -2.6980     3.0260    -2.0720 hc         1 995       0.040033
     47 HN3         -3.6890     1.4780    -0.9260 hn         1 995       0.319500
     48 H141        -5.4590     1.1400     0.2860 hc         1 995       0.058700
     49 H142        -4.7300     0.9230     1.8620 hc         1 995       0.058700
     50 H151        -5.4700    -1.4800     1.8620 hc         1 995       0.053200
     51 H152        -6.2850    -1.2200     0.3310 hc         1 995       0.053200
     52 H16         -6.9090     0.2360     2.9290 hc         1 995       0.045700
     53 H171        -8.3530     0.2910     0.2360 hc         1 995       0.032033
     54 H172        -8.9750     1.0020     1.7230 hc         1 995       0.032033
     55 H173        -7.5200     1.6520     0.9850 hc         1 995       0.032033
     56 H181        -8.4460    -1.9900     1.5050 hc         1 995       0.032033
     57 H182        -7.5220    -2.1830     2.9950 hc         1 995       0.032033
     58 H183        -8.9600    -1.1630     2.9730 hc         1 995       0.032033
     59 H191         3.8380    -2.8690    -1.3530 h1         1 995       0.034200
     60 H192         4.5070    -2.5680     0.2420 h1         1 995       0.034200
     61 HN4          3.1630    -4.4410     1.0020 hn         1 995       0.360800
     62 H20          5.4390    -4.7650    -0.0350 h3         1 995      -0.003300
     63 HN51         4.9960    -7.1310     0.1050 hn         1 995       0.349050
     64 HN52         4.3540    -6.3620     1.3680 hn         1 995       0.349050
     65 HN61         5.3910    -5.8240    -2.0260 hn         1 995       0.349050
     66 HN62         3.7710    -5.9990    -2.0460 hn         1 995       0.349050
@<TRIPOS>BOND
     1     1     2 1   
     2     1     3 1   
     3     1     4 2   
     4     2     9 1   
     5     2    11 1   
     6     2    31 1   
     7     3     5 1   
     8     3     8 2   
     9     5     6 1   
    10     6     7 2   
    11     6    32 1   
    12     7     8 1   
    13     7    33 1   
    14     9    10 1   
    15     9    34 1   
    16     9    35 1   
    17    10    26 1   
    18    10    36 1   
    19    10    37 1   
    20    11    12 1   
    21    11    38 1   
    22    12    13 1   
    23    12    25 2   
    24    13    14 1   
    25    13    17 1   
    26    13    39 1   
    27    14    15 1   
    28    14    16 1   
    29    14    40 1   
    30    15    41 1   
    31    15    42 1   
    32    15    43 1   
    33    16    44 1   
    34    16    45 1   
    35    16    46 1   
    36    17    18 1   
    37    17    47 1   
    38    18    19 1   
    39    18    24 2   
    40    19    20 1   
    41    19    48 1   
    42    19    49 1   
    43    20    21 1   
    44    20    50 1   
    45    20    51 1   
    46    21    22 1   
    47    21    23 1   
    48    21    52 1   
    49    22    53 1   
    50    22    54 1   
    51    22    55 1   
    52    23    56 1   
    53    23    57 1   
    54    23    58 1   
    55    26    27 1   
    56    26    59 1   
    57    26    60 1   
    58    27    28 1   
    59    27    61 1   
    60    28    29 1   
    61    28    30 1   
    62    28    62 1   
    63    29    63 1   
    64    29    64 1   
    65    30    65 1   
    66    30    66 1   
@<TRIPOS>SUBSTRUCTURE
     1 995         1 TEMP              0 ****  ****    0 ROOT
