@<TRIPOS>MOLECULE
996
   72    74     1     0     0
SMALL
abcg2


@<TRIPOS>ATOM
      1 O21         -1.4100     1.6120    -0.5320 o          1 996      -0.614100
      2 C6          -1.8370     1.3960     0.5960 c          1 996       0.600100
      3 C5          -1.7160     2.3970     1.7200 c3         1 996      -0.186100
      4 N7          -2.4420     0.2470     0.9430 ns         1 996      -0.503900
      5 C8          -2.8110    -0.8260     0.0380 c3         1 996       0.096700
      6 C13         -3.8660    -0.3820    -0.9900 c3         1 996      -0.050100
      7 C22         -5.0760     0.2130    -0.3310 ca         1 996      -0.080300
      8 C23         -5.2120     1.5910    -0.1860 ca         1 996      -0.110500
      9 C24         -6.3110     2.1360     0.4660 ca         1 996      -0.111000
     10 C25         -7.2940     1.3050     0.9870 ca         1 996      -0.112000
     11 C26         -7.1710    -0.0720     0.8480 ca         1 996      -0.111000
     12 C27         -6.0710    -0.6100     0.1950 ca         1 996      -0.110500
     13 C9          -1.6100    -1.5040    -0.6480 c3         1 996       0.156300
     14 O1          -2.0340    -2.7050    -1.2620 oh         1 996      -0.644000
     15 C10         -0.4440    -1.7420     0.2990 c3         1 996       0.138800
     16 N11          0.6650    -2.3790    -0.3890 n7         1 996      -0.858400
     17 C12          1.9550    -2.1440     0.2500 c6         1 996       0.269800
     18 C17          2.5930    -0.8780    -0.2380 cc         1 996      -0.203300
     19 C16          3.9740    -0.7420    -0.4650 cc         1 996       0.254300
     20 C14          4.9530    -1.8610    -0.3440 c6         1 996      -0.092700
     21 C2           4.3550    -3.0350     0.4510 c6         1 996      -0.041000
     22 C3           4.3840    -2.7190     1.9480 c3         1 996      -0.085100
     23 C4           5.1940    -4.2860     0.1950 c3         1 996      -0.085100
     24 C15          2.9160    -3.3000    -0.0220 c6         1 996      -0.074400
     25 N20          4.2760     0.4740    -0.8890 nd         1 996      -0.530800
     26 N19          3.1140     1.1250    -0.9490 na         1 996       0.132800
     27 C18          2.0750     0.3540    -0.5720 cd         1 996      -0.144000
     28 C28          3.0660     2.5120    -1.3540 c3         1 996       0.089600
     29 C29          3.0890     3.5330    -0.2070 c3         1 996      -0.061000
     30 C30          4.3480     3.3680     0.6410 c3         1 996      -0.087100
     31 C31          3.0820     4.9180    -0.8570 c3         1 996      -0.087100
     32 C32          1.8510     3.3820     0.6760 c3         1 996      -0.087100
     33 H1          -1.2380     3.3080     1.3690 hc         1 996       0.061700
     34 H2          -2.6990     2.6490     2.1210 hc         1 996       0.061700
     35 H3          -1.1260     1.9890     2.5420 hc         1 996       0.061700
     36 H4          -2.7800     0.1700     1.8890 hn         1 996       0.313500
     37 H5          -3.2750    -1.5770     0.6850 h1         1 996       0.038700
     38 H6          -3.4210     0.3350    -1.6810 hc         1 996       0.073700
     39 H7          -4.1530    -1.2580    -1.5750 hc         1 996       0.073700
     40 H8          -4.4510     2.2470    -0.5970 ha         1 996       0.114000
     41 H9          -6.4000     3.2100     0.5660 ha         1 996       0.112000
     42 H10         -8.1520     1.7280     1.4930 ha         1 996       0.112000
     43 H11         -7.9360    -0.7270     1.2460 ha         1 996       0.112000
     44 H12         -5.9840    -1.6860     0.0870 ha         1 996       0.114000
     45 H13         -1.2530    -0.8720    -1.4660 h1         1 996       0.112700
     46 H14         -2.3230    -3.3140    -0.5730 ho         1 996       0.427000
     47 H15         -0.1050    -0.7820     0.6880 h1         1 996       0.029700
     48 H16         -0.7820    -2.3120     1.1810 h1         1 996       0.029700
     49 H17          0.4950    -3.3740    -0.4460 hn         1 996       0.416000
     50 H19          1.8290    -2.0750     1.3430 h1         1 996       0.023700
     51 H20          5.2220    -2.2120    -1.3470 hc         1 996       0.055200
     52 H21          5.8850    -1.5280     0.1220 hc         1 996       0.055200
     53 H22          3.8910    -1.7750     2.1880 hc         1 996       0.033700
     54 H23          3.8950    -3.5060     2.5270 hc         1 996       0.033700
     55 H24          5.4150    -2.6430     2.3000 hc         1 996       0.033700
     56 H25          6.2370    -4.1240     0.4750 hc         1 996       0.033700
     57 H26          4.8240    -5.1360     0.7720 hc         1 996       0.033700
     58 H27          5.1710    -4.5670    -0.8600 hc         1 996       0.033700
     59 H28          2.5370    -4.2020     0.4700 hc         1 996       0.045700
     60 H29          2.9240    -3.5070    -1.0990 hc         1 996       0.045700
     61 H30          1.0650     0.7330    -0.5940 h4         1 996       0.168000
     62 H31          3.9170     2.6770    -2.0160 h1         1 996       0.067200
     63 H32          2.1610     2.6530    -1.9500 h1         1 996       0.067200
     64 H33          5.2540     3.4460     0.0370 hc         1 996       0.037700
     65 H34          4.3930     4.1410     1.4110 hc         1 996       0.037700
     66 H35          4.3710     2.4020     1.1480 hc         1 996       0.037700
     67 H36          3.9520     5.0600    -1.5020 hc         1 996       0.037700
     68 H37          2.1880     5.0660    -1.4690 hc         1 996       0.037700
     69 H38          3.0980     5.7020    -0.0990 hc         1 996       0.037700
     70 H39          1.8120     4.1800     1.4200 hc         1 996       0.037700
     71 H40          0.9300     3.4230     0.0900 hc         1 996       0.037700
     72 H41          1.8500     2.4340     1.2180 hc         1 996       0.037700
@<TRIPOS>BOND
     1     1     2 2   
     2     2     3 1   
     3     2     4 1   
     4     3    33 1   
     5     3    34 1   
     6     3    35 1   
     7     4     5 1   
     8     4    36 1   
     9     5     6 1   
    10     5    13 1   
    11     5    37 1   
    12     6     7 1   
    13     6    38 1   
    14     6    39 1   
    15     7     8 ar  
    16     7    12 ar  
    17     8     9 ar  
    18     8    40 1   
    19     9    10 ar  
    20     9    41 1   
    21    10    11 ar  
    22    10    42 1   
    23    11    12 ar  
    24    11    43 1   
    25    12    44 1   
    26    13    14 1   
    27    13    15 1   
    28    13    45 1   
    29    14    46 1   
    30    15    16 1   
    31    15    47 1   
    32    15    48 1   
    33    16    17 1   
    34    16    49 1   
    35    17    18 1   
    36    17    24 1   
    37    17    50 1   
    38    18    19 1   
    39    18    27 2   
    40    19    20 1   
    41    19    25 2   
    42    20    21 1   
    43    20    51 1   
    44    20    52 1   
    45    21    22 1   
    46    21    23 1   
    47    21    24 1   
    48    22    53 1   
    49    22    54 1   
    50    22    55 1   
    51    23    56 1   
    52    23    57 1   
    53    23    58 1   
    54    24    59 1   
    55    24    60 1   
    56    25    26 1   
    57    26    27 1   
    58    26    28 1   
    59    27    61 1   
    60    28    29 1   
    61    28    62 1   
    62    28    63 1   
    63    29    30 1   
    64    29    31 1   
    65    29    32 1   
    66    30    64 1   
    67    30    65 1   
    68    30    66 1   
    69    31    67 1   
    70    31    68 1   
    71    31    69 1   
    72    32    70 1   
    73    32    71 1   
    74    32    72 1   
@<TRIPOS>SUBSTRUCTURE
     1 996         1 TEMP              0 ****  ****    0 ROOT
