@<TRIPOS>MOLECULE
996
   72    74     1     0     0
SMALL
No Charge or Current Charge


@<TRIPOS>ATOM
      1 O21         -1.9500     1.4430    -1.3970 o          1 996      -0.614100
      2 C6          -2.1480     1.5300    -0.1950 c          1 996       0.600100
      3 C5          -1.9110     2.8200     0.5770 c3         1 996      -0.186100
      4 N7          -2.5920     0.4770     0.5750 ns         1 996      -0.503900
      5 C8          -2.9340    -0.8730     0.0870 c3         1 996       0.096700
      6 C13         -4.2130    -0.8380    -0.7950 c3         1 996      -0.050100
      7 C22         -5.3680    -0.0810    -0.1450 ca         1 996      -0.080300
      8 C23         -5.7320     1.2000    -0.6070 ca         1 996      -0.110500
      9 C24         -6.7890     1.8990     0.0010 ca         1 996      -0.111000
     10 C25         -7.4890     1.3210     1.0740 ca         1 996      -0.112000
     11 C26         -7.1310     0.0450     1.5380 ca         1 996      -0.111000
     12 C27         -6.0740    -0.6540     0.9310 ca         1 996      -0.110500
     13 C9          -1.7360    -1.6050    -0.6050 c3         1 996       0.156300
     14 O1          -2.0870    -2.9810    -0.8840 oh         1 996      -0.644000
     15 C10         -0.4270    -1.5590     0.2410 c3         1 996       0.138800
     16 N11          0.7160    -2.1730    -0.4760 n7         1 996      -0.858400
     17 C12          2.0360    -2.0840     0.1730 c6         1 996       0.269800
     18 C17          2.7440    -0.8100    -0.2410 cc         1 996      -0.203300
     19 C16          4.1250    -0.7240    -0.5090 cc         1 996       0.254300
     20 C14          5.0100    -1.9530    -0.4900 c6         1 996      -0.092700
     21 C2           4.3830    -3.1580     0.2760 c6         1 996      -0.041000
     22 C3           4.4990    -2.9470     1.8200 c3         1 996      -0.085100
     23 C4           5.1740    -4.4590    -0.0600 c3         1 996      -0.085100
     24 C15          2.8990    -3.3230    -0.1710 c6         1 996      -0.074400
     25 N20          4.5220     0.4910    -0.8270 nd         1 996      -0.530800
     26 N19          3.3470     1.2300    -0.7470 na         1 996       0.132800
     27 C18          2.2410     0.4460    -0.4080 cd         1 996      -0.144000
     28 C28          3.3320     2.6750    -1.0570 c3         1 996       0.089600
     29 C29          3.3380     3.6380     0.1740 c3         1 996      -0.061000
     30 C30          4.5960     3.3980     1.0520 c3         1 996      -0.087100
     31 C31          3.3650     5.0980    -0.3510 c3         1 996      -0.087100
     32 C32          2.0620     3.4450     1.0380 c3         1 996      -0.087100
     33 H1          -1.5460     3.6330    -0.0610 hc         1 996       0.061700
     34 H2          -2.8350     3.0970     1.0960 hc         1 996       0.061700
     35 H3          -1.2270     2.6180     1.4090 hc         1 996       0.061700
     36 H4          -2.7370     0.6760     1.5580 hn         1 996       0.313500
     37 H5          -3.1850    -1.4530     0.9850 h1         1 996       0.038700
     38 H6          -3.9670    -0.3930    -1.7670 hc         1 996       0.073700
     39 H7          -4.5300    -1.8650    -1.0120 hc         1 996       0.073700
     40 H8          -5.1930     1.6570    -1.4340 ha         1 996       0.114000
     41 H9          -7.0650     2.8880    -0.3590 ha         1 996       0.112000
     42 H10         -8.3080     1.8630     1.5440 ha         1 996       0.112000
     43 H11         -7.6730    -0.4030     2.3690 ha         1 996       0.112000
     44 H12         -5.8020    -1.6420     1.2970 ha         1 996       0.114000
     45 H13         -1.5250    -1.0810    -1.5470 h1         1 996       0.112700
     46 H14         -2.1810    -3.4380    -0.0210 ho         1 996       0.427000
     47 H15         -0.1990    -0.5160     0.4860 h1         1 996       0.029700
     48 H16         -0.5990    -2.0780     1.1940 h1         1 996       0.029700
     49 H17          0.4870    -3.1630    -0.6100 hn         1 996       0.416000
     50 H19          1.8850    -2.0780     1.2630 h1         1 996       0.023700
     51 H20          5.2100    -2.2490    -1.5280 hc         1 996       0.055200
     52 H21          5.9910    -1.7090    -0.0610 hc         1 996       0.055200
     53 H22          4.0450    -2.0020     2.1420 hc         1 996       0.033700
     54 H23          4.0050    -3.7550     2.3720 hc         1 996       0.033700
     55 H24          5.5470    -2.9220     2.1420 hc         1 996       0.033700
     56 H25          6.2330    -4.3670     0.2110 hc         1 996       0.033700
     57 H26          4.7700    -5.3250     0.4770 hc         1 996       0.033700
     58 H27          5.1300    -4.6890    -1.1320 hc         1 996       0.033700
     59 H28          2.4590    -4.2130     0.3000 hc         1 996       0.045700
     60 H29          2.8660    -3.5000    -1.2550 hc         1 996       0.045700
     61 H30          1.2390     0.8450    -0.3180 h4         1 996       0.168000
     62 H31          4.2040     2.8930    -1.6860 h1         1 996       0.067200
     63 H32          2.4420     2.8750    -1.6650 h1         1 996       0.067200
     64 H33          5.5130     3.5070     0.4600 hc         1 996       0.037700
     65 H34          4.6400     4.1180     1.8780 hc         1 996       0.037700
     66 H35          4.5910     2.3920     1.4880 hc         1 996       0.037700
     67 H36          4.2580     5.2800    -0.9610 hc         1 996       0.037700
     68 H37          2.4840     5.3080    -0.9700 hc         1 996       0.037700
     69 H38          3.3720     5.8150     0.4790 hc         1 996       0.037700
     70 H39          2.0190     4.1890     1.8430 hc         1 996       0.037700
     71 H40          1.1570     3.5550     0.4280 hc         1 996       0.037700
     72 H41          2.0410     2.4540     1.5060 hc         1 996       0.037700
@<TRIPOS>BOND
     1     1     2 2   
     2     2     3 1   
     3     2     4 1   
     4     3    33 1   
     5     3    34 1   
     6     3    35 1   
     7     4     5 1   
     8     4    36 1   
     9     5     6 1   
    10     5    13 1   
    11     5    37 1   
    12     6     7 1   
    13     6    38 1   
    14     6    39 1   
    15     7     8 ar  
    16     7    12 ar  
    17     8     9 ar  
    18     8    40 1   
    19     9    10 ar  
    20     9    41 1   
    21    10    11 ar  
    22    10    42 1   
    23    11    12 ar  
    24    11    43 1   
    25    12    44 1   
    26    13    14 1   
    27    13    15 1   
    28    13    45 1   
    29    14    46 1   
    30    15    16 1   
    31    15    47 1   
    32    15    48 1   
    33    16    17 1   
    34    16    49 1   
    35    17    18 1   
    36    17    24 1   
    37    17    50 1   
    38    18    19 1   
    39    18    27 2   
    40    19    20 1   
    41    19    25 2   
    42    20    21 1   
    43    20    51 1   
    44    20    52 1   
    45    21    22 1   
    46    21    23 1   
    47    21    24 1   
    48    22    53 1   
    49    22    54 1   
    50    22    55 1   
    51    23    56 1   
    52    23    57 1   
    53    23    58 1   
    54    24    59 1   
    55    24    60 1   
    56    25    26 1   
    57    26    27 1   
    58    26    28 1   
    59    27    61 1   
    60    28    29 1   
    61    28    62 1   
    62    28    63 1   
    63    29    30 1   
    64    29    31 1   
    65    29    32 1   
    66    30    64 1   
    67    30    65 1   
    68    30    66 1   
    69    31    67 1   
    70    31    68 1   
    71    31    69 1   
    72    32    70 1   
    73    32    71 1   
    74    32    72 1   
@<TRIPOS>SUBSTRUCTURE
     1 996         1 TEMP              0 ****  ****    0 ROOT
