@<TRIPOS>MOLECULE
997
   81    84     1     0     0
SMALL
bcc


@<TRIPOS>ATOM
      1 C1          -4.6860     1.0000    -0.2940 ca         1 997      -0.102300
      2 C2          -4.2660    -0.4540    -0.1510 c6         1 997       0.155000
      3 C3          -5.9990     1.3410    -0.6320 ca         1 997      -0.066300
      4 C4          -3.7620     2.0150    -0.0400 ca         1 997      -0.109000
      5 N5          -2.9050    -0.6640    -0.5950 ns         1 997      -0.559900
      6 C6          -5.2190    -1.4060    -0.8660 c6         1 997      -0.085400
      7 C7          -7.0390     0.2970    -0.9540 c6         1 997      -0.032100
      8 C8          -6.3490     2.6900    -0.7030 ca         1 997      -0.137000
      9 C9          -4.1230     3.3500    -0.1140 ca         1 997      -0.133000
     10 C10         -1.8840    -0.9730     0.2150 c          1 997       0.672100
     11 C11         -6.6540    -1.0940    -0.4750 c6         1 997      -0.070400
     12 C12         -5.4280     3.6920    -0.4470 ca         1 997      -0.124000
     13 C13         -0.5590    -1.2190    -0.4990 c5         1 997       0.028700
     14 O14         -1.9820    -1.1160     1.4240 o          1 997      -0.600100
     15 N15          0.5550    -0.6890     0.2710 n          1 997      -0.453800
     16 C16         -0.2550    -2.7150    -0.5960 c5         1 997      -0.087400
     17 C17          0.6220     0.6360     0.4870 c          1 997       0.671100
     18 C18          1.5620    -1.6920     0.5640 c5         1 997       0.078000
     19 C19          1.2610    -2.7650    -0.4850 c5         1 997       0.135100
     20 C20          1.7630     1.1910     1.3440 c3         1 997       0.052700
     21 O21         -0.2220     1.3890     0.0220 o          1 997      -0.622100
     22 N22          2.3100     2.3440     0.6710 ns         1 997      -0.550900
     23 C23          1.3160     1.5280     2.7920 c3         1 997      -0.044000
     24 C24          2.8820     2.2220    -0.5380 c          1 997       0.674100
     25 C25          0.2220     2.5960     2.8510 c3         1 997      -0.090767
     26 C26          0.7980     0.2470     3.4500 c3         1 997      -0.090767
     27 C27          2.5440     2.0140     3.5680 c3         1 997      -0.090767
     28 C28          3.1800     3.5250    -1.2620 c3         1 997       0.101500
     29 O29          3.1050     1.1320    -1.0470 o          1 997      -0.617100
     30 N30          4.4690     3.4080    -1.9110 n7         1 997      -0.802200
     31 C31          1.9940     3.8240    -2.1890 c3         1 997      -0.130100
     32 CNM          4.9500     4.6380    -2.5070 c3         1 997       0.150100
     33 OQ2          1.6630    -4.0600    -0.1090 os         1 997      -0.318900
     34 C            2.9630    -4.4220    -0.2000 ca         1 997       0.137100
     35 C5           3.9900    -3.5920    -0.6420 ca         1 997      -0.187000
     36 C14          5.2920    -4.0810    -0.7000 ca         1 997      -0.093000
     37 C15          5.5840    -5.3810    -0.3220 ca         1 997      -0.164000
     38 C21          4.5530    -6.2040     0.1200 ca         1 997      -0.093000
     39 C22          3.2530    -5.7330     0.1800 ca         1 997      -0.187000
     40 H43         -4.2820    -0.7000     0.9140 h1         1 997       0.090700
     41 H35         -2.7390     1.7600     0.2080 ha         1 997       0.155000
     42 HN5         -2.7150    -0.5150    -1.5740 hn         1 997       0.315500
     43 HS1         -5.0990    -1.3080    -1.9500 hc         1 997       0.046700
     44 HS2         -4.9550    -2.4330    -0.6050 hc         1 997       0.046700
     45 HW1         -7.1840     0.2750    -2.0390 hc         1 997       0.048700
     46 HW2         -8.0000     0.5970    -0.5310 hc         1 997       0.048700
     47 H36         -7.3680     2.9540    -0.9670 ha         1 997       0.126000
     48 H34         -3.3900     4.1210     0.0870 ha         1 997       0.132000
     49 HV1         -7.3350    -1.8340    -0.8980 hc         1 997       0.046200
     50 HV2         -6.7580    -1.1600     0.6130 hc         1 997       0.046200
     51 H33         -5.7250     4.7310    -0.5070 ha         1 997       0.128000
     52 HPA         -0.5740    -0.7680    -1.4960 h1         1 997       0.069700
     53 HP1         -0.6320    -3.1510    -1.5200 hc         1 997       0.076200
     54 HP2         -0.6920    -3.2550     0.2480 hc         1 997       0.076200
     55 HR1          2.5660    -1.2830     0.4710 h1         1 997       0.069700
     56 HR2          1.4460    -2.1080     1.5700 h1         1 997       0.069700
     57 HQ1          1.7120    -2.4830    -1.4440 h1         1 997       0.062700
     58 HTA          2.5610     0.4530     1.4420 h1         1 997       0.076700
     59 HN22         2.0500     3.2640     0.9880 hn         1 997       0.323500
     60 HT11        -0.7010     2.2670     2.3780 hc         1 997       0.041700
     61 HT12        -0.0040     2.8220     3.8940 hc         1 997       0.041700
     62 HT13         0.5200     3.5380     2.3870 hc         1 997       0.041700
     63 HT21         1.5540    -0.5410     3.4410 hc         1 997       0.041700
     64 HT22         0.5430     0.4420     4.4930 hc         1 997       0.041700
     65 HT23        -0.0970    -0.1360     2.9590 hc         1 997       0.041700
     66 HT31         2.9460     2.9490     3.1760 hc         1 997       0.041700
     67 HT32         2.2790     2.1890     4.6120 hc         1 997       0.041700
     68 HT33         3.3460     1.2720     3.5510 hc         1 997       0.041700
     69 HAA          3.2560     4.3340    -0.5280 h1         1 997       0.062700
     70 H30          4.4290     2.6790    -2.6110 hn         1 997       0.375800
     71 HB1          1.8970     3.0480    -2.9510 hc         1 997       0.048367
     72 HB2          1.0580     3.8690    -1.6310 hc         1 997       0.048367
     73 HB3          2.1220     4.7810    -2.6930 hc         1 997       0.048367
     74 HM1          4.3100     5.0620    -3.2900 h1         1 997       0.030033
     75 HM2          5.0720     5.4000    -1.7340 h1         1 997       0.030033
     76 HM3          5.9320     4.4630    -2.9470 h1         1 997       0.030033
     77 HD1          3.8100    -2.5690    -0.9450 ha         1 997       0.143500
     78 HE1          6.0810    -3.4250    -1.0450 ha         1 997       0.132000
     79 HZ           6.6000    -5.7500    -0.3670 ha         1 997       0.133000
     80 HE2          4.7610    -7.2230     0.4200 ha         1 997       0.132000
     81 HD2          2.4510    -6.3760     0.5220 ha         1 997       0.143500
@<TRIPOS>BOND
     1     1     2 1   
     2     1     3 ar  
     3     1     4 ar  
     4     2     5 1   
     5     2     6 1   
     6     2    40 1   
     7     3     7 1   
     8     3     8 ar  
     9     4     9 ar  
    10     4    41 1   
    11     5    10 1   
    12     5    42 1   
    13     6    11 1   
    14     6    43 1   
    15     6    44 1   
    16     7    11 1   
    17     7    45 1   
    18     7    46 1   
    19     8    12 ar  
    20     8    47 1   
    21     9    12 ar  
    22     9    48 1   
    23    10    13 1   
    24    10    14 2   
    25    11    49 1   
    26    11    50 1   
    27    12    51 1   
    28    13    15 1   
    29    13    16 1   
    30    13    52 1   
    31    15    17 1   
    32    15    18 1   
    33    16    19 1   
    34    16    53 1   
    35    16    54 1   
    36    17    20 1   
    37    17    21 2   
    38    18    19 1   
    39    18    55 1   
    40    18    56 1   
    41    19    33 1   
    42    19    57 1   
    43    20    22 1   
    44    20    23 1   
    45    20    58 1   
    46    22    24 1   
    47    22    59 1   
    48    23    25 1   
    49    23    26 1   
    50    23    27 1   
    51    24    28 1   
    52    24    29 2   
    53    25    60 1   
    54    25    61 1   
    55    25    62 1   
    56    26    63 1   
    57    26    64 1   
    58    26    65 1   
    59    27    66 1   
    60    27    67 1   
    61    27    68 1   
    62    28    30 1   
    63    28    31 1   
    64    28    69 1   
    65    30    32 1   
    66    30    70 1   
    67    31    71 1   
    68    31    72 1   
    69    31    73 1   
    70    32    74 1   
    71    32    75 1   
    72    32    76 1   
    73    33    34 1   
    74    34    35 ar  
    75    34    39 ar  
    76    35    36 ar  
    77    35    77 1   
    78    36    37 ar  
    79    36    78 1   
    80    37    38 ar  
    81    37    79 1   
    82    38    39 ar  
    83    38    80 1   
    84    39    81 1   
@<TRIPOS>SUBSTRUCTURE
     1 997         1 TEMP              0 ****  ****    0 ROOT
