@<TRIPOS>MOLECULE
997
   81    84     1     0     0
SMALL
No Charge or Current Charge


@<TRIPOS>ATOM
      1 C1          -5.0720     0.8330    -0.3450 ca         1 997      -0.102300
      2 C2          -4.7190    -0.5410     0.2680 c6         1 997       0.155000
      3 C3          -6.3690     1.0980    -0.8580 ca         1 997      -0.066300
      4 C4          -4.1090     1.8680    -0.3590 ca         1 997      -0.091000
      5 N5          -3.3860    -0.9800    -0.1660 ns         1 997      -0.492900
      6 C6          -5.7480    -1.6420    -0.0800 c6         1 997      -0.085400
      7 C7          -7.4720     0.0330    -0.8500 c6         1 997      -0.032100
      8 C8          -6.6630     2.3640    -1.4010 ca         1 997      -0.119000
      9 C9          -4.4150     3.1280    -0.8980 ca         1 997      -0.115000
     10 C10         -2.2230    -0.8510     0.5620 c          1 997       0.605100
     11 C11         -7.1870    -1.1330     0.1180 c6         1 997      -0.070400
     12 C12         -5.6910     3.3750    -1.4240 ca         1 997      -0.106000
     13 C13         -1.0200    -1.3690    -0.2890 c5         1 997       0.028700
     14 O14         -2.1900    -0.3880     1.6950 o          1 997      -0.600100
     15 N15          0.3120    -0.8490     0.1270 n          1 997      -0.386800
     16 C16         -0.8360    -2.8900    -0.0170 c5         1 997      -0.087400
     17 C17          0.6030     0.5350     0.1330 c          1 997       0.604100
     18 C18          1.3600    -1.8990     0.1110 c5         1 997       0.078000
     19 C19          0.6100    -3.1150    -0.5140 c5         1 997       0.158300
     20 C20          1.9310     1.0410     0.7950 c3         1 997       0.052700
     21 O21         -0.2030     1.3240    -0.3540 o          1 997      -0.622100
     22 N22          2.3490     2.2890     0.1070 ns         1 997      -0.483900
     23 C23          1.8360     1.2390     2.3590 c3         1 997      -0.044000
     24 C24          3.6260     2.5710    -0.3370 c          1 997       0.607100
     25 C25          0.7110     2.2500     2.7220 c3         1 997      -0.090767
     26 C26          1.5410    -0.1040     3.0800 c3         1 997      -0.090767
     27 C27          3.1820     1.7810     2.9180 c3         1 997      -0.090767
     28 C28          3.7970     3.9710    -1.0300 c3         1 997       0.101500
     29 O29          4.5510     1.7780    -0.1970 o          1 997      -0.617100
     30 N30          4.7420     4.8760    -0.2960 n7         1 997      -0.857400
     31 C31          4.2490     3.7960    -2.5000 c3         1 997      -0.130100
     32 CNM          4.8000     6.2890    -0.7290 c3         1 997       0.150100
     33 OQ2          1.0860    -4.3520     0.0880 os         1 997      -0.342100
     34 C            2.4120    -4.5720    -0.2330 ca         1 997       0.137100
     35 C5           2.8740    -4.5830    -1.5670 ca         1 997      -0.169000
     36 C14          4.2330    -4.8230    -1.8390 ca         1 997      -0.075000
     37 C15          5.1290    -5.0640    -0.7840 ca         1 997      -0.146000
     38 C21          4.6680    -5.0760     0.5430 ca         1 997      -0.075000
     39 C22          3.3090    -4.8380     0.8140 ca         1 997      -0.169000
     40 H43         -4.7130    -0.4200     1.3620 h1         1 997       0.090700
     41 H35         -3.1160     1.7050     0.0520 ha         1 997       0.137000
     42 HN5         -3.3000    -1.3670    -1.0980 hn         1 997       0.315500
     43 HS1         -5.6190    -1.9660    -1.1220 hc         1 997       0.046700
     44 HS2         -5.5720    -2.5260     0.5480 hc         1 997       0.046700
     45 HW1         -7.5880    -0.3620    -1.8690 hc         1 997       0.048700
     46 HW2         -8.4360     0.4920    -0.5900 hc         1 997       0.048700
     47 H36         -7.6530     2.5660    -1.8050 ha         1 997       0.108000
     48 H34         -3.6620     3.9130    -0.9070 ha         1 997       0.114000
     49 HV1         -7.9060    -1.9460    -0.0530 hc         1 997       0.046200
     50 HV2         -7.3260    -0.8000     1.1570 hc         1 997       0.046200
     51 H33         -5.9290     4.3510    -1.8430 ha         1 997       0.110000
     52 HPA         -1.2000    -1.1590    -1.3520 h1         1 997       0.069700
     53 HP1         -1.5660    -3.5050    -0.5560 hc         1 997       0.076200
     54 HP2         -0.9300    -3.1230     1.0510 hc         1 997       0.076200
     55 HR1          2.2270    -1.6140    -0.5000 h1         1 997       0.069700
     56 HR2          1.7050    -2.1290     1.1260 h1         1 997       0.069700
     57 HQ1          0.6580    -3.1350    -1.6100 h1         1 997       0.062700
     58 HTA          2.6970     0.2820     0.6010 h1         1 997       0.076700
     59 HN22         1.6380     2.9880    -0.0740 hn         1 997       0.323500
     60 HT11        -0.2740     1.8830     2.4080 hc         1 997       0.041700
     61 HT12         0.6700     2.4140     3.8060 hc         1 997       0.041700
     62 HT13         0.8790     3.2230     2.2460 hc         1 997       0.041700
     63 HT21         2.3240    -0.8420     2.8700 hc         1 997       0.041700
     64 HT22         1.5070     0.0370     4.1680 hc         1 997       0.041700
     65 HT23         0.5740    -0.5230     2.7800 hc         1 997       0.041700
     66 HT31         3.4040     2.7850     2.5360 hc         1 997       0.041700
     67 HT32         3.1550     1.8490     4.0130 hc         1 997       0.041700
     68 HT33         4.0140     1.1210     2.6440 hc         1 997       0.041700
     69 HAA          2.7990     4.4300    -1.0470 h1         1 997       0.062700
     70 H30          5.6880     4.4720    -0.3380 hn         1 997       0.431000
     71 HB1          5.2680     3.3920    -2.5540 hc         1 997       0.048367
     72 HB2          3.5810     3.1010    -3.0220 hc         1 997       0.048367
     73 HB3          4.2230     4.7480    -3.0430 hc         1 997       0.048367
     74 HM1          5.2060     6.3790    -1.7450 h1         1 997       0.030033
     75 HM2          3.8010     6.7450    -0.7130 h1         1 997       0.030033
     76 HM3          5.4470     6.8690    -0.0570 h1         1 997       0.030033
     77 HD1          2.1910    -4.4270    -2.3970 ha         1 997       0.125500
     78 HE1          4.5900    -4.8290    -2.8670 ha         1 997       0.114000
     79 HZ           6.1800    -5.2500    -0.9950 ha         1 997       0.115000
     80 HE2          5.3610    -5.2720     1.3590 ha         1 997       0.114000
     81 HD2          2.9510    -4.8490     1.8410 ha         1 997       0.125500
@<TRIPOS>BOND
     1     1     2 1   
     2     1     3 ar  
     3     1     4 ar  
     4     2     5 1   
     5     2     6 1   
     6     2    40 1   
     7     3     7 1   
     8     3     8 ar  
     9     4     9 ar  
    10     4    41 1   
    11     5    10 1   
    12     5    42 1   
    13     6    11 1   
    14     6    43 1   
    15     6    44 1   
    16     7    11 1   
    17     7    45 1   
    18     7    46 1   
    19     8    12 ar  
    20     8    47 1   
    21     9    12 ar  
    22     9    48 1   
    23    10    13 1   
    24    10    14 2   
    25    11    49 1   
    26    11    50 1   
    27    12    51 1   
    28    13    15 1   
    29    13    16 1   
    30    13    52 1   
    31    15    17 1   
    32    15    18 1   
    33    16    19 1   
    34    16    53 1   
    35    16    54 1   
    36    17    20 1   
    37    17    21 2   
    38    18    19 1   
    39    18    55 1   
    40    18    56 1   
    41    19    33 1   
    42    19    57 1   
    43    20    22 1   
    44    20    23 1   
    45    20    58 1   
    46    22    24 1   
    47    22    59 1   
    48    23    25 1   
    49    23    26 1   
    50    23    27 1   
    51    24    28 1   
    52    24    29 2   
    53    25    60 1   
    54    25    61 1   
    55    25    62 1   
    56    26    63 1   
    57    26    64 1   
    58    26    65 1   
    59    27    66 1   
    60    27    67 1   
    61    27    68 1   
    62    28    30 1   
    63    28    31 1   
    64    28    69 1   
    65    30    32 1   
    66    30    70 1   
    67    31    71 1   
    68    31    72 1   
    69    31    73 1   
    70    32    74 1   
    71    32    75 1   
    72    32    76 1   
    73    33    34 1   
    74    34    35 ar  
    75    34    39 ar  
    76    35    36 ar  
    77    35    77 1   
    78    36    37 ar  
    79    36    78 1   
    80    37    38 ar  
    81    37    79 1   
    82    38    39 ar  
    83    38    80 1   
    84    39    81 1   
@<TRIPOS>SUBSTRUCTURE
     1 997         1 TEMP              0 ****  ****    0 ROOT
