@<TRIPOS>MOLECULE
998
   70    72     1     0     0
SMALL
No Charge or Current Charge


@<TRIPOS>ATOM
      1 C1          -4.2160     1.2220    -0.0420 ca         1 998      -0.103300
      2 C2          -4.2790    -0.2820     0.3070 c6         1 998       0.157000
      3 C3          -5.3870     1.9450    -0.3940 ca         1 998      -0.067300
      4 C4          -2.9850     1.9140     0.0320 ca         1 998      -0.087000
      5 N5          -3.1570    -1.0070    -0.3030 ns         1 998      -0.494900
      6 C6          -5.6040    -0.9500    -0.1300 c6         1 998      -0.086400
      7 C7          -6.7610     1.2680    -0.4680 c6         1 998      -0.032100
      8 C8          -5.2990     3.3180    -0.6960 ca         1 998      -0.119000
      9 C9          -2.9110     3.2840    -0.2670 ca         1 998      -0.114000
     10 C10         -1.9850    -1.3540     0.3340 c          1 998       0.607100
     11 C11         -6.8140    -0.0860     0.2690 c6         1 998      -0.070400
     12 C12         -4.0670     3.9860    -0.6350 ca         1 998      -0.106000
     13 C13         -1.0260    -2.0410    -0.6900 c5         1 998       0.025700
     14 O14         -1.7750    -1.1280     1.5200 o          1 998      -0.599100
     15 N15          0.4150    -2.0240    -0.3130 n          1 998      -0.392800
     16 C16         -1.3070    -3.5700    -0.6940 c5         1 998      -0.086400
     17 C17          1.1180    -0.8140    -0.1110 c          1 998       0.600100
     18 C18          1.0840    -3.3230    -0.5610 c5         1 998       0.106000
     19 C19         -0.0060    -4.1130    -1.3300 c5         1 998      -0.095400
     20 C20          2.5570    -0.8490     0.5120 c3         1 998       0.048700
     21 O21          0.5800     0.2520    -0.3990 o          1 998      -0.629100
     22 N22          3.3200     0.3140    -0.0090 ns         1 998      -0.495900
     23 C23          2.5740    -0.8980     2.0900 c3         1 998      -0.045000
     24 C24          4.6080     0.2730    -0.5050 c          1 998       0.611100
     25 C25          1.8310     0.3280     2.6920 c3         1 998      -0.089767
     26 C26          1.8960    -2.1910     2.6200 c3         1 998      -0.089767
     27 C27          4.0380    -0.8920     2.6160 c3         1 998      -0.089767
     28 C28          5.1830     1.6530    -0.9890 c3         1 998       0.098500
     29 O29          5.2470    -0.7730    -0.5580 o          1 998      -0.610100
     30 N30          6.3840     2.0950    -0.2060 n7         1 998      -0.856400
     31 C31          5.5120     1.6020    -2.5010 c3         1 998      -0.129100
     32 CNM          6.8620     3.4780    -0.4230 c3         1 998       0.149100
     33 H43         -4.2040    -0.3690     1.4010 h1         1 998       0.089700
     34 H35         -2.0760     1.3950     0.3250 ha         1 998       0.138000
     35 H44         -3.2220    -1.2350    -1.2870 hn         1 998       0.313500
     36 HS1         -5.6110    -1.1020    -1.2190 hc         1 998       0.044700
     37 HS2         -5.6860    -1.9460     0.3260 hc         1 998       0.044700
     38 HW1         -7.0220     1.1160    -1.5240 hc         1 998       0.048200
     39 HW2         -7.5310     1.9340    -0.0560 hc         1 998       0.048200
     40 H36         -6.1930     3.8710    -0.9760 ha         1 998       0.107000
     41 H34         -1.9560     3.8010    -0.2100 ha         1 998       0.114000
     42 HV1         -7.7510    -0.6070     0.0270 hc         1 998       0.046200
     43 HV2         -6.8140     0.0780     1.3550 hc         1 998       0.046200
     44 H33         -4.0100     5.0470    -0.8680 ha         1 998       0.110000
     45 HPA         -1.1670    -1.5960    -1.6840 h1         1 998       0.063700
     46 HP1         -2.2030    -3.8330    -1.2680 hc         1 998       0.064200
     47 HP2         -1.4410    -3.9610     0.3230 hc         1 998       0.064200
     48 HR1          2.0010    -3.2210    -1.1560 h1         1 998       0.059200
     49 HR2          1.3330    -3.8230     0.3840 h1         1 998       0.059200
     50 HQ1          0.0310    -3.8900    -2.4030 hc         1 998       0.058200
     51 HQ2          0.1050    -5.1980    -1.2180 hc         1 998       0.058200
     52 HTA          3.0450    -1.7590     0.1440 h1         1 998       0.087700
     53 H53          2.8530     1.2140    -0.0270 hn         1 998       0.330500
     54 HT11         0.7730     0.3350     2.4060 hc         1 998       0.040700
     55 HT12         1.8740     0.3110     3.7880 hc         1 998       0.040700
     56 HT13         2.2800     1.2710     2.3580 hc         1 998       0.040700
     57 HT21         2.4020    -3.0840     2.2360 hc         1 998       0.040700
     58 HT22         1.9400    -2.2330     3.7150 hc         1 998       0.040700
     59 HT23         0.8380    -2.2390     2.3380 hc         1 998       0.040700
     60 HT31         4.5500     0.0470     2.3740 hc         1 998       0.040700
     61 HT32         4.0650    -1.0050     3.7070 hc         1 998       0.040700
     62 HT33         4.6140    -1.7170     2.1790 hc         1 998       0.040700
     63 HAA          4.3750     2.3870    -0.8550 h1         1 998       0.064700
     64 H67          7.1570     1.4400    -0.3880 hn         1 998       0.431000
     65 HB1          4.6450     1.2380    -3.0650 hc         1 998       0.045367
     66 HB2          5.7640     2.5950    -2.8900 hc         1 998       0.045367
     67 HB3          6.3530     0.9260    -2.6980 hc         1 998       0.045367
     68 HM1          7.2420     3.6140    -1.4440 h1         1 998       0.029700
     69 HM2          6.0530     4.2020    -0.2550 h1         1 998       0.029700
     70 HM3          7.6780     3.7140     0.2730 h1         1 998       0.029700
@<TRIPOS>BOND
     1     1     2 1   
     2     1     3 ar  
     3     1     4 ar  
     4     2     5 1   
     5     2     6 1   
     6     2    33 1   
     7     3     7 1   
     8     3     8 ar  
     9     4     9 ar  
    10     4    34 1   
    11     5    10 1   
    12     5    35 1   
    13     6    11 1   
    14     6    36 1   
    15     6    37 1   
    16     7    11 1   
    17     7    38 1   
    18     7    39 1   
    19     8    12 ar  
    20     8    40 1   
    21     9    12 ar  
    22     9    41 1   
    23    10    13 1   
    24    10    14 2   
    25    11    42 1   
    26    11    43 1   
    27    12    44 1   
    28    13    15 1   
    29    13    16 1   
    30    13    45 1   
    31    15    17 1   
    32    15    18 1   
    33    16    19 1   
    34    16    46 1   
    35    16    47 1   
    36    17    20 1   
    37    17    21 2   
    38    18    19 1   
    39    18    48 1   
    40    18    49 1   
    41    19    50 1   
    42    19    51 1   
    43    20    22 1   
    44    20    23 1   
    45    20    52 1   
    46    22    24 1   
    47    22    53 1   
    48    23    25 1   
    49    23    26 1   
    50    23    27 1   
    51    24    28 1   
    52    24    29 2   
    53    25    54 1   
    54    25    55 1   
    55    25    56 1   
    56    26    57 1   
    57    26    58 1   
    58    26    59 1   
    59    27    60 1   
    60    27    61 1   
    61    27    62 1   
    62    28    30 1   
    63    28    31 1   
    64    28    63 1   
    65    30    32 1   
    66    30    64 1   
    67    31    65 1   
    68    31    66 1   
    69    31    67 1   
    70    32    68 1   
    71    32    69 1   
    72    32    70 1   
@<TRIPOS>SUBSTRUCTURE
     1 998         1 TEMP              0 ****  ****    0 ROOT
