@<TRIPOS>MOLECULE
998
   70    72     1     0     0
SMALL
bcc


@<TRIPOS>ATOM
      1 C1          -3.9080     1.1780     0.0610 ca         1 998      -0.103300
      2 C2          -3.9680    -0.3380    -0.0530 c6         1 998       0.157000
      3 C3          -5.0470     1.9650    -0.1300 ca         1 998      -0.067300
      4 C4          -2.7040     1.7920     0.4090 ca         1 998      -0.105000
      5 N5          -2.7720    -0.8810    -0.6590 ns         1 998      -0.561900
      6 C6          -5.2040    -0.8170    -0.8060 c6         1 998      -0.086400
      7 C7          -6.3710     1.3670    -0.5320 c6         1 998      -0.032100
      8 C8          -4.9470     3.3480     0.0300 ca         1 998      -0.137000
      9 C9          -2.6180     3.1660     0.5640 ca         1 998      -0.132000
     10 C10         -1.8200    -1.5590    -0.0010 c          1 998       0.674100
     11 C11         -6.4470    -0.1290    -0.2690 c6         1 998      -0.070400
     12 C12         -3.7490     3.9510     0.3730 ca         1 998      -0.124000
     13 C13         -0.7300    -2.1360    -0.8960 c5         1 998       0.025700
     14 O14         -1.8340    -1.7720     1.2010 o          1 998      -0.599100
     15 N15          0.5770    -2.0480    -0.2640 n          1 998      -0.459800
     16 C16         -0.9260    -3.6420    -1.1110 c5         1 998      -0.086400
     17 C17          1.0510    -0.8410     0.0740 c          1 998       0.667100
     18 C18          1.2540    -3.3410    -0.2040 c5         1 998       0.106000
     19 C19          0.5000    -4.1630    -1.2380 c5         1 998      -0.095400
     20 C20          2.3940    -0.7410     0.7900 c3         1 998       0.048700
     21 O21          0.4200     0.1790    -0.1830 o          1 998      -0.629100
     22 N22          3.1060     0.3690     0.2020 ns         1 998      -0.562900
     23 C23          2.2410    -0.5990     2.3330 c3         1 998      -0.045000
     24 C24          4.3370     0.2800    -0.3310 c          1 998       0.678100
     25 C25          1.4190     0.6290     2.7250 c3         1 998      -0.089767
     26 C26          1.5720    -1.8560     2.8930 c3         1 998      -0.089767
     27 C27          3.6400    -0.4760     2.9400 c3         1 998      -0.089767
     28 C28          4.8120     1.5340    -1.0530 c3         1 998       0.098500
     29 O29          5.0220    -0.7310    -0.2930 o          1 998      -0.610100
     30 N30          6.2170     1.7290    -0.7610 n7         1 998      -0.801200
     31 C31          4.4590     1.3880    -2.5400 c3         1 998      -0.129100
     32 CNM          6.7620     2.9700    -1.2720 c3         1 998       0.149100
     33 H43         -4.0130    -0.7430     0.9610 h1         1 998       0.089700
     34 H35         -1.8170     1.1890     0.5490 ha         1 998       0.156000
     35 H44         -2.6360    -0.7020    -1.6420 hn         1 998       0.313500
     36 HS1         -5.0950    -0.5970    -1.8740 hc         1 998       0.044700
     37 HS2         -5.2790    -1.9020    -0.7100 hc         1 998       0.044700
     38 HW1         -6.5280     1.5510    -1.6000 hc         1 998       0.048200
     39 HW2         -7.1800     1.8900    -0.0170 hc         1 998       0.048200
     40 H36         -5.8300     3.9590    -0.1180 ha         1 998       0.125000
     41 H34         -1.6740     3.6220     0.8330 ha         1 998       0.132000
     42 HV1         -7.3430    -0.5440    -0.7340 hc         1 998       0.046200
     43 HV2         -6.5360    -0.3170     0.8060 hc         1 998       0.046200
     44 H33         -3.6960     5.0260     0.4910 ha         1 998       0.128000
     45 HPA         -0.7120    -1.6140    -1.8580 h1         1 998       0.063700
     46 HP1         -1.5470    -3.8470    -1.9810 hc         1 998       0.064200
     47 HP2         -1.4070    -4.0890    -0.2380 hc         1 998       0.064200
     48 HR1          2.3130    -3.2500    -0.4400 h1         1 998       0.059200
     49 HR2          1.1630    -3.7810     0.7920 h1         1 998       0.059200
     50 HQ1          0.8930    -3.9620    -2.2370 hc         1 998       0.058200
     51 HQ2          0.5820    -5.2330    -1.0520 hc         1 998       0.058200
     52 HTA          2.9960    -1.6320     0.6140 h1         1 998       0.087700
     53 H53          2.5960     1.2320     0.0950 hn         1 998       0.330500
     54 HT11         0.3770     0.5450     2.4210 hc         1 998       0.040700
     55 HT12         1.4370     0.7450     3.8110 hc         1 998       0.040700
     56 HT13         1.8240     1.5480     2.2990 hc         1 998       0.040700
     57 HT21         2.1380    -2.7550     2.6380 hc         1 998       0.040700
     58 HT22         1.5230    -1.7990     3.9810 hc         1 998       0.040700
     59 HT23         0.5520    -1.9820     2.5260 hc         1 998       0.040700
     60 HT31         4.1430     0.4370     2.6200 hc         1 998       0.040700
     61 HT32         3.5670    -0.4440     4.0290 hc         1 998       0.040700
     62 HT33         4.2730    -1.3240     2.6730 hc         1 998       0.040700
     63 HAA          4.2750     2.4020    -0.6580 h1         1 998       0.064700
     64 H67          6.7480     0.9460    -1.1200 hn         1 998       0.375800
     65 HB1          3.3850     1.2540    -2.6810 hc         1 998       0.045367
     66 HB2          4.7550     2.2740    -3.1000 hc         1 998       0.045367
     67 HB3          4.9690     0.5260    -2.9740 hc         1 998       0.045367
     68 HM1          6.6950     3.0990    -2.3590 h1         1 998       0.029700
     69 HM2          6.2500     3.8160    -0.8100 h1         1 998       0.029700
     70 HM3          7.8150     3.0380    -1.0000 h1         1 998       0.029700
@<TRIPOS>BOND
     1     1     2 1   
     2     1     3 ar  
     3     1     4 ar  
     4     2     5 1   
     5     2     6 1   
     6     2    33 1   
     7     3     7 1   
     8     3     8 ar  
     9     4     9 ar  
    10     4    34 1   
    11     5    10 1   
    12     5    35 1   
    13     6    11 1   
    14     6    36 1   
    15     6    37 1   
    16     7    11 1   
    17     7    38 1   
    18     7    39 1   
    19     8    12 ar  
    20     8    40 1   
    21     9    12 ar  
    22     9    41 1   
    23    10    13 1   
    24    10    14 2   
    25    11    42 1   
    26    11    43 1   
    27    12    44 1   
    28    13    15 1   
    29    13    16 1   
    30    13    45 1   
    31    15    17 1   
    32    15    18 1   
    33    16    19 1   
    34    16    46 1   
    35    16    47 1   
    36    17    20 1   
    37    17    21 2   
    38    18    19 1   
    39    18    48 1   
    40    18    49 1   
    41    19    50 1   
    42    19    51 1   
    43    20    22 1   
    44    20    23 1   
    45    20    52 1   
    46    22    24 1   
    47    22    53 1   
    48    23    25 1   
    49    23    26 1   
    50    23    27 1   
    51    24    28 1   
    52    24    29 2   
    53    25    54 1   
    54    25    55 1   
    55    25    56 1   
    56    26    57 1   
    57    26    58 1   
    58    26    59 1   
    59    27    60 1   
    60    27    61 1   
    61    27    62 1   
    62    28    30 1   
    63    28    31 1   
    64    28    63 1   
    65    30    32 1   
    66    30    64 1   
    67    31    65 1   
    68    31    66 1   
    69    31    67 1   
    70    32    68 1   
    71    32    69 1   
    72    32    70 1   
@<TRIPOS>SUBSTRUCTURE
     1 998         1 TEMP              0 ****  ****    0 ROOT
