@<TRIPOS>MOLECULE
999
   15    14     1     0     0
SMALL
bcc


@<TRIPOS>ATOM
      1 OD2          1.4890   -52.4150   -19.1740 o          1 999      -0.860800
      2 CG           1.5710   -53.5800   -19.6020 c          1 999       0.968600
      3 OD1          0.6240   -54.3350   -19.9140 o          1 999      -0.860800
      4 CB           2.9660   -54.1650   -19.8810 c3         1 999       0.055100
      5 OB           4.0020   -53.2520   -19.5990 oh         1 999      -0.595800
      6 CA           3.2770   -55.4980   -19.1870 c3         1 999      -0.005500
      7 N            4.5750   -55.9400   -19.6900 n8         1 999      -0.924800
      8 C            3.3120   -55.3970   -17.6390 c          1 999       0.934600
      9 OXT          2.3460   -54.8340   -17.0930 o          1 999      -0.847300
     10 O            4.2840   -55.9280   -17.0610 o          1 999      -0.847300
     11 HB           2.9620   -54.3920   -20.9640 h1         1 999      -0.045300
     12 H3           4.8010   -53.7960   -19.6690 ho         1 999       0.377000
     13 HA           2.4700   -56.2010   -19.4370 h1         1 999       0.024700
     14 H            4.9970   -56.5500   -19.0040 hn         1 999       0.314300
     15 H2           4.4650   -56.4620   -20.5490 hn         1 999       0.314300
@<TRIPOS>BOND
     1     1     2 1   
     2     2     3 1   
     3     2     4 1   
     4     4     5 1   
     5     4     6 1   
     6     4    11 1   
     7     5    12 1   
     8     6     7 1   
     9     6     8 1   
    10     6    13 1   
    11     7    14 1   
    12     7    15 1   
    13     8     9 1   
    14     8    10 1   
@<TRIPOS>SUBSTRUCTURE
     1 999         1 TEMP              0 ****  ****    0 ROOT
