@<TRIPOS>MOLECULE
99A
   71    75     1     0     0
SMALL
bcc


@<TRIPOS>ATOM
      1 C15          6.0850     2.1790     2.5500 c3         1 99A      -0.050800
      2 C8           6.2620     1.4920     1.2270 ca         1 99A      -0.034300
      3 C9           7.5400     1.2480     0.7390 ca         1 99A      -0.118000
      4 C10          7.7710     0.6350    -0.4890 ca         1 99A      -0.132600
      5 C14          9.1830     0.4840    -0.9670 c          1 99A       0.683700
      6 O2           9.5170     0.8100    -2.0960 o          1 99A      -0.594100
      7 N2          10.0390    -0.0090    -0.0600 nt         1 99A      -0.674000
      8 C11          6.6950     0.2200    -1.2800 ca         1 99A      -0.032300
      9 C13          6.8590    -0.4460    -2.6160 c3         1 99A      -0.049800
     10 C12          5.4180     0.4270    -0.7720 ca         1 99A      -0.122000
     11 C7           5.1880     1.0560     0.4470 ca         1 99A      -0.131600
     12 C6           3.7720     1.2950     0.8730 c          1 99A       0.674700
     13 O1           3.3780     2.4010     1.2170 o          1 99A      -0.594100
     14 N1           2.9810     0.2110     0.8230 ns         1 99A      -0.574900
     15 C5           1.5680     0.2420     1.1790 c6         1 99A       0.123700
     16 C30          1.0900    -1.1660     1.5710 c6         1 99A      -0.115900
     17 C4           0.6980     0.8580     0.0680 c6         1 99A      -0.115900
     18 C1           0.2480    -0.1610    -0.9810 c5         1 99A       0.221500
     19 C2           1.4060    -0.9240    -1.6400 c5         1 99A      -0.079400
     20 C3           1.6070    -2.1660    -0.7440 c5         1 99A      -0.079400
     21 C29          0.5840    -1.9930     0.3850 c5         1 99A       0.221500
     22 N3          -0.4590    -1.2370    -0.2930 nh         1 99A      -0.763300
     23 C16         -1.7430    -1.1450     0.1180 ca         1 99A       0.706200
     24 C17         -2.2990    -2.0470     1.0530 ca         1 99A      -0.330300
     25 C18         -3.6270    -1.9300     1.3720 ca         1 99A       0.000000
     26 N5          -2.4890    -0.1820    -0.4360 nb         1 99A      -0.757000
     27 C28         -3.7650    -0.0850    -0.1050 ca         1 99A       0.482200
     28 C19         -4.4090    -0.9190     0.8000 ca         1 99A      -0.338900
     29 C20         -5.8500    -0.8360     1.1400 c          1 99A       0.698700
     30 O3          -6.4400    -1.8000     1.6140 o          1 99A      -0.609100
     31 N4          -6.4560     0.3450     0.9000 ns         1 99A      -0.573900
     32 C21         -7.8670     0.5840     1.0810 c3         1 99A       0.145300
     33 C22         -8.5990     0.8240    -0.2180 ca         1 99A      -0.109300
     34 C23         -8.3210     0.0690    -1.3540 ca         1 99A      -0.117500
     35 C24         -9.0270     0.2760    -2.5310 ca         1 99A      -0.128500
     36 C25        -10.0240     1.2430    -2.5880 ca         1 99A      -0.126000
     37 C26        -10.3060     2.0020    -1.4610 ca         1 99A      -0.128500
     38 C27         -9.5950     1.7940    -0.2850 ca         1 99A      -0.117500
     39 H151         5.7040     3.1920     2.4250 hc         1 99A       0.052033
     40 H152         5.3830     1.6490     3.1950 hc         1 99A       0.052033
     41 H153         7.0360     2.2420     3.0770 hc         1 99A       0.052033
     42 H9           8.3860     1.5670     1.3380 ha         1 99A       0.135000
     43 H21N         9.7330    -0.3530     0.8330 hn         1 99A       0.316000
     44 H22N        11.0130    -0.1220    -0.2920 hn         1 99A       0.316000
     45 H131         7.5840    -1.2600    -2.5830 hc         1 99A       0.052033
     46 H132         5.9090    -0.8620    -2.9500 hc         1 99A       0.052033
     47 H133         7.1980     0.2580    -3.3740 hc         1 99A       0.052033
     48 H12          4.5710     0.1030    -1.3680 ha         1 99A       0.134000
     49 H1           3.4170    -0.6790     0.6480 hn         1 99A       0.316500
     50 H301         1.8850    -1.7000     2.0990 hc         1 99A       0.063950
     51 H302         0.2720    -1.0600     2.2880 hc         1 99A       0.063950
     52 H41C        -0.1960     1.2890     0.5270 hc         1 99A       0.063950
     53 H42C         1.2300     1.6850    -0.4070 hc         1 99A       0.063950
     54 H29          0.2210    -2.9590     0.7350 h1         1 99A       0.085200
     55 HA          -0.3980     0.3190    -1.7120 h1         1 99A       0.085200
     56 H21C         1.1260    -1.2260    -2.6490 hc         1 99A       0.051950
     57 H22C         2.2960    -0.3040    -1.7280 hc         1 99A       0.051950
     58 H31C         1.3790    -3.0750    -1.3000 hc         1 99A       0.051950
     59 H32C         2.6240    -2.2890    -0.3690 hc         1 99A       0.051950
     60 H17         -1.7000    -2.8200     1.5120 ha         1 99A       0.141000
     61 H18         -4.0680    -2.6190     2.0800 ha         1 99A       0.156000
     62 H28         -4.3060     0.7030    -0.6210 h4         1 99A       0.013100
     63 H4          -5.9030     1.1330     0.6060 hn         1 99A       0.313500
     64 H211        -8.2940    -0.2770     1.5950 h1         1 99A       0.065200
     65 H212        -8.0040     1.4410     1.7440 h1         1 99A       0.065200
     66 H23         -7.5440    -0.6850    -1.3270 ha         1 99A       0.132000
     67 H27         -9.8170     2.3970     0.5870 ha         1 99A       0.132000
     68 H24         -8.7990    -0.3200    -3.4050 ha         1 99A       0.130500
     69 H25        -10.5730     1.4060    -3.5070 ha         1 99A       0.130000
     70 H26        -11.0750     2.7620    -1.4960 ha         1 99A       0.130500
     71 H5           1.4830     0.8820     2.0600 h1         1 99A       0.069700
@<TRIPOS>BOND
     1     1     2 1   
     2     1    39 1   
     3     1    40 1   
     4     1    41 1   
     5     2     3 ar  
     6     2    11 ar  
     7     3     4 ar  
     8     3    42 1   
     9     4     5 1   
    10     4     8 ar  
    11     5     6 2   
    12     5     7 1   
    13     7    43 1   
    14     7    44 1   
    15     8     9 1   
    16     8    10 ar  
    17     9    45 1   
    18     9    46 1   
    19     9    47 1   
    20    10    11 ar  
    21    10    48 1   
    22    11    12 1   
    23    12    13 2   
    24    12    14 1   
    25    14    15 1   
    26    14    49 1   
    27    15    16 1   
    28    15    17 1   
    29    15    71 1   
    30    16    21 1   
    31    16    50 1   
    32    16    51 1   
    33    17    18 1   
    34    17    52 1   
    35    17    53 1   
    36    18    19 1   
    37    18    22 1   
    38    18    55 1   
    39    19    20 1   
    40    19    56 1   
    41    19    57 1   
    42    20    21 1   
    43    20    58 1   
    44    20    59 1   
    45    21    22 1   
    46    21    54 1   
    47    22    23 1   
    48    23    24 ar  
    49    23    26 ar  
    50    24    25 ar  
    51    24    60 1   
    52    25    28 ar  
    53    25    61 1   
    54    26    27 ar  
    55    27    28 ar  
    56    27    62 1   
    57    28    29 1   
    58    29    30 2   
    59    29    31 1   
    60    31    32 1   
    61    31    63 1   
    62    32    33 1   
    63    32    64 1   
    64    32    65 1   
    65    33    34 ar  
    66    33    38 ar  
    67    34    35 ar  
    68    34    66 1   
    69    35    36 ar  
    70    35    68 1   
    71    36    37 ar  
    72    36    69 1   
    73    37    38 ar  
    74    37    70 1   
    75    38    67 1   
@<TRIPOS>SUBSTRUCTURE
     1 99A         1 TEMP              0 ****  ****    0 ROOT
