@<TRIPOS>MOLECULE
99A
   71    75     1     0     0
SMALL
No Charge or Current Charge


@<TRIPOS>ATOM
      1 C15          6.2090     2.9680     2.0390 c3         1 99A      -0.050800
      2 C8           6.3250     1.8840     0.9680 ca         1 99A      -0.034300
      3 C9           7.5940     1.6610     0.3990 ca         1 99A      -0.100000
      4 C10          7.8210     0.6620    -0.5800 ca         1 99A      -0.132600
      5 C14          9.2230     0.4850    -1.1590 c          1 99A       0.616700
      6 O2           9.4670    -0.0950    -2.2030 o          1 99A      -0.594100
      7 N2          10.2570     1.0430    -0.4910 nt         1 99A      -0.607000
      8 C11          6.7140    -0.1320    -0.9870 ca         1 99A      -0.032300
      9 C13          6.8330    -1.2560    -2.0170 c3         1 99A      -0.049800
     10 C12          5.4450     0.0940    -0.4200 ca         1 99A      -0.104000
     11 C7           5.2200     1.0930     0.5570 ca         1 99A      -0.131600
     12 C6           3.8170     1.2910     1.1190 c          1 99A       0.607700
     13 O1           3.4120     2.3500     1.5780 o          1 99A      -0.594100
     14 N1           2.9810     0.1980     1.0320 ns         1 99A      -0.507900
     15 C5           1.5720     0.1520     1.4490 c6         1 99A       0.123700
     16 C30          1.1300    -1.3110     1.7600 c6         1 99A      -0.115900
     17 C4           0.6370     0.8160     0.3890 c6         1 99A      -0.115900
     18 C1           0.1850    -0.1570    -0.7370 c5         1 99A       0.221500
     19 C2           1.3480    -0.8540    -1.5050 c5         1 99A      -0.079400
     20 C3           1.6320    -2.1590    -0.6780 c5         1 99A      -0.079400
     21 C29          0.6240    -2.0910     0.5110 c5         1 99A       0.221500
     22 N3          -0.4520    -1.3510    -0.1600 nh         1 99A      -0.763300
     23 C16         -1.8140    -1.4270     0.1910 ca         1 99A       0.640900
     24 C17         -2.3030    -2.3120     1.1670 ca         1 99A      -0.247000
     25 C18         -3.6730    -2.3300     1.4550 ca         1 99A       0.018000
     26 N5          -2.6190    -0.5940    -0.4880 nb         1 99A      -0.757000
     27 C28         -3.9390    -0.6120    -0.2130 ca         1 99A       0.416900
     28 C19         -4.5180    -1.4570     0.7470 ca         1 99A      -0.273600
     29 C20         -5.9930    -1.4410     1.0200 c          1 99A       0.631700
     30 O3          -6.5000    -2.1760     1.8550 o          1 99A      -0.609100
     31 N4          -6.7560    -0.5600     0.2910 ns         1 99A      -0.506900
     32 C21         -8.2030    -0.4160     0.4310 c3         1 99A       0.145300
     33 C22         -8.7370     0.6430    -0.5210 ca         1 99A      -0.109300
     34 C23         -9.1490     0.2870    -1.8200 ca         1 99A      -0.099500
     35 C24         -9.6370     1.2670    -2.7020 ca         1 99A      -0.110500
     36 C25         -9.7140     2.6080    -2.2910 ca         1 99A      -0.108000
     37 C26         -9.3020     2.9690    -0.9970 ca         1 99A      -0.110500
     38 C27         -8.8140     1.9890    -0.1150 ca         1 99A      -0.099500
     39 H151         5.6460     3.8320     1.6670 hc         1 99A       0.052033
     40 H152         5.7050     2.5900     2.9370 hc         1 99A       0.052033
     41 H153         7.1900     3.3360     2.3600 hc         1 99A       0.052033
     42 H9           8.4130     2.2960     0.7250 ha         1 99A       0.117000
     43 H21N        10.1000     1.5190     0.3840 hn         1 99A       0.316000
     44 H22N        11.1900     0.9470    -0.8630 hn         1 99A       0.316000
     45 H131         7.6310    -1.9590    -1.7490 hc         1 99A       0.052033
     46 H132         5.9100    -1.8430    -2.0960 hc         1 99A       0.052033
     47 H133         7.0450    -0.8570    -3.0160 hc         1 99A       0.052033
     48 H12          4.6170    -0.5130    -0.7730 ha         1 99A       0.116000
     49 H1           3.3960    -0.6490     0.6700 hn         1 99A       0.316500
     50 H301         1.9460    -1.8630     2.2460 hc         1 99A       0.063950
     51 H302         0.3140    -1.2790     2.4950 hc         1 99A       0.063950
     52 H41C        -0.2620     1.1870     0.8980 hc         1 99A       0.063950
     53 H42C         1.1180     1.7000    -0.0490 hc         1 99A       0.063950
     54 H29          0.3330    -3.1080     0.8100 h1         1 99A       0.085200
     55 HA          -0.4620     0.3870    -1.4410 h1         1 99A       0.085200
     56 H21C         1.0340    -1.1120    -2.5230 hc         1 99A       0.051950
     57 H22C         2.2270    -0.2080    -1.6070 hc         1 99A       0.051950
     58 H31C         1.4350    -3.0450    -1.2930 hc         1 99A       0.051950
     59 H32C         2.6710    -2.2430    -0.3440 hc         1 99A       0.051950
     60 H17         -1.6390    -2.9770     1.7060 ha         1 99A       0.123000
     61 H18         -4.0650    -3.0100     2.2110 ha         1 99A       0.138000
     62 H28         -4.5390     0.0860    -0.7940 h4         1 99A       0.013100
     63 H4          -6.2850     0.0240    -0.3860 hn         1 99A       0.313500
     64 H211        -8.6820    -1.3820     0.2220 h1         1 99A       0.065200
     65 H212        -8.4380    -0.1390     1.4670 h1         1 99A       0.065200
     66 H23         -9.0900    -0.7500    -2.1480 ha         1 99A       0.114000
     67 H27         -8.4940     2.2780     0.8850 ha         1 99A       0.114000
     68 H24         -9.9550     0.9860    -3.7040 ha         1 99A       0.112500
     69 H25        -10.0920     3.3660    -2.9730 ha         1 99A       0.112000
     70 H26         -9.3590     4.0070    -0.6780 ha         1 99A       0.112500
     71 H5           1.5030     0.7320     2.3820 h1         1 99A       0.069700
@<TRIPOS>BOND
     1     1     2 1   
     2     1    39 1   
     3     1    40 1   
     4     1    41 1   
     5     2     3 ar  
     6     2    11 ar  
     7     3     4 ar  
     8     3    42 1   
     9     4     5 1   
    10     4     8 ar  
    11     5     6 2   
    12     5     7 1   
    13     7    43 1   
    14     7    44 1   
    15     8     9 1   
    16     8    10 ar  
    17     9    45 1   
    18     9    46 1   
    19     9    47 1   
    20    10    11 ar  
    21    10    48 1   
    22    11    12 1   
    23    12    13 2   
    24    12    14 1   
    25    14    15 1   
    26    14    49 1   
    27    15    16 1   
    28    15    17 1   
    29    15    71 1   
    30    16    21 1   
    31    16    50 1   
    32    16    51 1   
    33    17    18 1   
    34    17    52 1   
    35    17    53 1   
    36    18    19 1   
    37    18    22 1   
    38    18    55 1   
    39    19    20 1   
    40    19    56 1   
    41    19    57 1   
    42    20    21 1   
    43    20    58 1   
    44    20    59 1   
    45    21    22 1   
    46    21    54 1   
    47    22    23 1   
    48    23    24 ar  
    49    23    26 ar  
    50    24    25 ar  
    51    24    60 1   
    52    25    28 ar  
    53    25    61 1   
    54    26    27 ar  
    55    27    28 ar  
    56    27    62 1   
    57    28    29 1   
    58    29    30 2   
    59    29    31 1   
    60    31    32 1   
    61    31    63 1   
    62    32    33 1   
    63    32    64 1   
    64    32    65 1   
    65    33    34 ar  
    66    33    38 ar  
    67    34    35 ar  
    68    34    66 1   
    69    35    36 ar  
    70    35    68 1   
    71    36    37 ar  
    72    36    69 1   
    73    37    38 ar  
    74    37    70 1   
    75    38    67 1   
@<TRIPOS>SUBSTRUCTURE
     1 99A         1 TEMP              0 ****  ****    0 ROOT
