@<TRIPOS>MOLECULE
99B
   74    78     1     0     0
SMALL
bcc


@<TRIPOS>ATOM
      1 C1           4.2180     2.3680    -0.4400 c3         1 99B       0.243500
      2 N1           5.1810     1.2880    -0.3540 nu         1 99B      -0.775600
      3 O1           1.2890    -3.0820    -0.7490 o          1 99B      -0.594100
      4 C2           4.8440     3.6490     0.1050 c3         1 99B      -0.091400
      5 N2           0.8990    -1.2270     0.4820 ns         1 99B      -0.575900
      6 O2          -8.4610     0.5660     1.1780 o          1 99B      -0.551100
      7 C3           5.2540     3.5600     1.5690 c3         1 99B      -0.094100
      8 N3          -2.2920     0.9250    -0.0110 nh         1 99B      -0.765300
      9 O3           7.6840     0.4640     0.3430 o          1 99B      -0.645100
     10 C4           3.7080     2.5640    -1.8650 c3         1 99B      -0.109100
     11 N4          -4.2660     0.3500    -1.0220 nb         1 99B      -0.766000
     12 C5           4.8690    -0.0200    -0.1980 ca         1 99B       0.258600
     13 N5           8.1670    -1.6590    -0.2020 nt         1 99B      -0.661000
     14 C6           3.5320    -0.4530    -0.2560 ca         1 99B      -0.227000
     15 C7           3.1630    -1.7720    -0.0580 ca         1 99B      -0.070600
     16 C8           1.7030    -2.1050    -0.1420 c          1 99B       0.671700
     17 C9          -0.5530    -1.3410     0.5220 c6         1 99B       0.126700
     18 C10         -1.2050    -1.0710    -0.8460 c6         1 99B      -0.115400
     19 C11         -1.4800     0.4100    -1.1090 c5         1 99B       0.224500
     20 C12         -1.3760     1.0150     1.1180 c5         1 99B       0.224500
     21 C13         -1.1020    -0.4090     1.6140 c6         1 99B      -0.115400
     22 C14         -0.1690     1.7100     0.4750 c5         1 99B      -0.079400
     23 C15         -0.2300     1.2930    -1.0090 c5         1 99B      -0.079400
     24 C16         -3.6260     0.7670     0.0780 ca         1 99B       0.713200
     25 C17         -5.5800     0.2150    -0.9890 ca         1 99B       0.500200
     26 C18         -6.3750     0.4720     0.1240 ca         1 99B      -0.354900
     27 C19         -7.8380     0.3070     0.1600 c          1 99B       0.631700
     28 C20         -8.5480    -0.1800    -1.0480 cx         1 99B      -0.257700
     29 C21         -9.9380     0.3520    -1.3120 cx         1 99B      -0.098400
     30 C22         -9.7730    -1.0430    -0.8460 cx         1 99B      -0.098400
     31 C23         -4.3360     1.0570     1.2690 ca         1 99B      -0.335300
     32 C24         -5.6960     0.9100     1.2740 ca         1 99B      -0.001000
     33 C25          5.8510    -1.0210     0.0120 ca         1 99B      -0.240600
     34 C26          7.2960    -0.6710     0.0620 c          1 99B       0.697700
     35 C27          5.4430    -2.3400     0.2170 ca         1 99B      -0.061000
     36 C28          4.1220    -2.7610     0.1940 ca         1 99B      -0.105300
     37 C29          3.7850    -4.2010     0.4600 c3         1 99B      -0.035800
     38 H1           3.3640     2.1310     0.2090 h1         1 99B       0.040700
     39 HN1          6.1450     1.5250    -0.1750 hn         1 99B       0.471800
     40 H2           5.7050     3.9220    -0.5150 hc         1 99B       0.049200
     41 H2A          4.1150     4.4520    -0.0210 hc         1 99B       0.049200
     42 HN2          1.3350    -0.5580     1.0950 hn         1 99B       0.315500
     43 H3           4.4080     3.2640     2.1930 hc         1 99B       0.039367
     44 H3A          6.0510     2.8340     1.7320 hc         1 99B       0.039367
     45 H3B          5.6120     4.5230     1.9310 hc         1 99B       0.039367
     46 H4           4.5150     2.9000    -2.5190 hc         1 99B       0.043367
     47 H4A          3.3040     1.6400    -2.2810 hc         1 99B       0.043367
     48 H4B          2.9120     3.3100    -1.8910 hc         1 99B       0.043367
     49 HN5          9.1530    -1.4510    -0.2040 hn         1 99B       0.315000
     50 HN5A         7.8890    -2.5300    -0.6160 hn         1 99B       0.315000
     51 H6           2.7590     0.2680    -0.4800 ha         1 99B       0.136000
     52 H9          -0.7910    -2.3700     0.8060 h1         1 99B       0.063700
     53 H10         -0.5920    -1.4880    -1.6450 hc         1 99B       0.064950
     54 H10A        -2.1570    -1.6090    -0.8840 hc         1 99B       0.064950
     55 H11         -1.9970     0.5270    -2.0590 h1         1 99B       0.084200
     56 H12         -1.7900     1.6150     1.9280 h1         1 99B       0.084200
     57 H13         -2.0410    -0.8270     1.9850 hc         1 99B       0.064950
     58 H13A        -0.4220    -0.3920     2.4710 hc         1 99B       0.064950
     59 H14         -0.2790     2.7890     0.5730 hc         1 99B       0.051950
     60 H14A         0.7680     1.4500     0.9690 hc         1 99B       0.051950
     61 H15          0.6610     0.7660    -1.3490 hc         1 99B       0.051950
     62 H15A        -0.3400     2.1710    -1.6460 hc         1 99B       0.051950
     63 H17         -6.0180    -0.1280    -1.9190 h4         1 99B       0.016100
     64 H20         -7.9600    -0.4050    -1.9260 hc         1 99B       0.087700
     65 H21        -10.3270     1.0820    -0.6150 hc         1 99B       0.079700
     66 H21A       -10.1970     0.5280    -2.3480 hc         1 99B       0.079700
     67 H22         -9.9140    -1.8490    -1.5540 hc         1 99B       0.079700
     68 H22A       -10.0470    -1.2790     0.1740 hc         1 99B       0.079700
     69 H23         -3.8270     1.3940     2.1600 ha         1 99B       0.141000
     70 H24         -6.2500     1.1320     2.1770 ha         1 99B       0.153000
     71 H27          6.1940    -3.0880     0.4420 ha         1 99B       0.126000
     72 H29          3.4290    -4.7110    -0.4350 hc         1 99B       0.045367
     73 H29A         4.6680    -4.7330     0.8130 hc         1 99B       0.045367
     74 H29B         3.0120    -4.3110     1.2200 hc         1 99B       0.045367
@<TRIPOS>BOND
     1     1     2 1   
     2     1     4 1   
     3     1    10 1   
     4     1    38 1   
     5     2    12 1   
     6     2    39 1   
     7     3    16 2   
     8     4     7 1   
     9     4    40 1   
    10     4    41 1   
    11     5    16 1   
    12     5    17 1   
    13     5    42 1   
    14     6    27 2   
    15     7    43 1   
    16     7    44 1   
    17     7    45 1   
    18     8    19 1   
    19     8    20 1   
    20     8    24 1   
    21     9    34 2   
    22    10    46 1   
    23    10    47 1   
    24    10    48 1   
    25    11    24 ar  
    26    11    25 ar  
    27    12    14 ar  
    28    12    33 ar  
    29    13    34 1   
    30    13    49 1   
    31    13    50 1   
    32    14    15 ar  
    33    14    51 1   
    34    15    16 1   
    35    15    36 ar  
    36    17    18 1   
    37    17    21 1   
    38    17    52 1   
    39    18    19 1   
    40    18    53 1   
    41    18    54 1   
    42    19    23 1   
    43    19    55 1   
    44    20    21 1   
    45    20    22 1   
    46    20    56 1   
    47    21    57 1   
    48    21    58 1   
    49    22    23 1   
    50    22    59 1   
    51    22    60 1   
    52    23    61 1   
    53    23    62 1   
    54    24    31 ar  
    55    25    26 ar  
    56    25    63 1   
    57    26    27 1   
    58    26    32 ar  
    59    27    28 1   
    60    28    29 1   
    61    28    30 1   
    62    28    64 1   
    63    29    30 1   
    64    29    65 1   
    65    29    66 1   
    66    30    67 1   
    67    30    68 1   
    68    31    32 ar  
    69    31    69 1   
    70    32    70 1   
    71    33    34 1   
    72    33    35 ar  
    73    35    36 ar  
    74    35    71 1   
    75    36    37 1   
    76    37    72 1   
    77    37    73 1   
    78    37    74 1   
@<TRIPOS>SUBSTRUCTURE
     1 99B         1 TEMP              0 ****  ****    0 ROOT
