@<TRIPOS>MOLECULE
99B
   74    78     1     0     0
SMALL
No Charge or Current Charge


@<TRIPOS>ATOM
      1 C1           4.0340     2.4030    -0.5740 c3         1 99B       0.243500
      2 N1           4.9490     1.4160     0.0110 nu         1 99B      -0.969200
      3 O1           1.4940    -3.5430    -0.0790 o          1 99B      -0.594100
      4 C2           4.5710     3.8300    -0.3080 c3         1 99B      -0.091400
      5 N2           0.9390    -1.5310     0.7920 ns         1 99B      -0.508900
      6 O2          -8.7000    -0.0940     1.2760 o          1 99B      -0.551100
      7 C3           4.5960     4.2280     1.1850 c3         1 99B      -0.094100
      8 N3          -2.3870     0.5160     0.2870 nh         1 99B      -0.765300
      9 O3           7.6040     0.9270    -0.1910 o          1 99B      -0.645100
     10 C4           3.8660     2.1260    -2.0830 c3         1 99B      -0.109100
     11 N4          -4.4040     0.2150    -0.8150 nb         1 99B      -0.766000
     12 C5           4.8060     0.0320     0.0180 ca         1 99B       0.397000
     13 N5           8.3420    -1.1300    -0.4530 nt         1 99B      -0.594000
     14 C6           3.5220    -0.5130     0.1610 ca         1 99B      -0.209000
     15 C7           3.2860    -1.9090     0.1600 ca         1 99B      -0.070600
     16 C8           1.8530    -2.4310     0.2850 c          1 99B       0.604700
     17 C9          -0.5110    -1.7330     0.8990 c6         1 99B       0.126700
     18 C10         -1.2160    -1.5380    -0.4800 c6         1 99B      -0.115400
     19 C11         -1.5700    -0.0560    -0.7940 c5         1 99B       0.224500
     20 C12         -1.4950     0.6220     1.4480 c5         1 99B       0.224500
     21 C13         -1.1220    -0.7930     1.9840 c6         1 99B      -0.115400
     22 C14         -0.3280     1.4030     0.7680 c5         1 99B      -0.079400
     23 C15         -0.3660     0.9350    -0.7310 c5         1 99B      -0.079400
     24 C16         -3.7890     0.3970     0.3640 ca         1 99B       0.647900
     25 C17         -5.7470     0.0980    -0.8260 ca         1 99B       0.434900
     26 C18         -6.5350     0.1590     0.3340 ca         1 99B      -0.289600
     27 C19         -8.0260     0.0190     0.2590 c          1 99B       0.631700
     28 C20         -8.6880     0.0080    -1.1040 cx         1 99B      -0.257700
     29 C21         -8.7100     1.2920    -1.9120 cx         1 99B      -0.098400
     30 C22         -9.9870     0.7670    -1.3010 cx         1 99B      -0.098400
     31 C23         -4.4950     0.4700     1.5760 ca         1 99B      -0.252000
     32 C24         -5.8900     0.3470     1.5690 ca         1 99B       0.017000
     33 C25          5.9260    -0.8150    -0.1120 ca         1 99B      -0.240600
     34 C26          7.3300    -0.2610    -0.2540 c          1 99B       0.630700
     35 C27          5.7040    -2.2130    -0.1080 ca         1 99B      -0.043000
     36 C28          4.4130    -2.7660     0.0230 ca         1 99B      -0.105300
     37 C29          4.2940    -4.2900     0.0430 c3         1 99B      -0.035800
     38 H1           3.0450     2.3250    -0.1010 h1         1 99B       0.040700
     39 HN1          5.9430     1.6760    -0.0210 hn         1 99B       0.527000
     40 H2           5.5790     3.9310    -0.7280 hc         1 99B       0.049200
     41 H2A          3.9370     4.5490    -0.8410 hc         1 99B       0.049200
     42 HN2          1.3170    -0.6470     1.1000 hn         1 99B       0.315500
     43 H3           3.5940     4.1480     1.6240 hc         1 99B       0.039367
     44 H3A          5.2760     3.5840     1.7550 hc         1 99B       0.039367
     45 H3B          4.9360     5.2650     1.2970 hc         1 99B       0.039367
     46 H4           4.8300     2.1840    -2.6020 hc         1 99B       0.043367
     47 H4A          3.4390     1.1310    -2.2550 hc         1 99B       0.043367
     48 H4B          3.1890     2.8610    -2.5330 hc         1 99B       0.043367
     49 HN5          9.2800    -0.7730    -0.5460 hn         1 99B       0.315000
     50 HN5A         8.1610    -2.1180    -0.5170 hn         1 99B       0.315000
     51 H6           2.6920     0.1760     0.2500 ha         1 99B       0.118000
     52 H9          -0.6620    -2.7730     1.2240 h1         1 99B       0.063700
     53 H10         -0.6030    -1.9560    -1.2890 hc         1 99B       0.064950
     54 H10A        -2.1490    -2.1170    -0.4830 hc         1 99B       0.064950
     55 H11         -2.0520    -0.0040    -1.7810 h1         1 99B       0.084200
     56 H12         -1.9150     1.2230     2.2670 h1         1 99B       0.084200
     57 H13         -2.0350    -1.2600     2.3760 hc         1 99B       0.064950
     58 H13A        -0.4410    -0.7050     2.8410 hc         1 99B       0.064950
     59 H14         -0.5070     2.4820     0.8290 hc         1 99B       0.051950
     60 H14A         0.6370     1.2250     1.2540 hc         1 99B       0.051950
     61 H15          0.5700     0.4750    -1.0660 hc         1 99B       0.051950
     62 H15A        -0.5420     1.7920    -1.3910 hc         1 99B       0.051950
     63 H17         -6.1880    -0.0560    -1.8090 h4         1 99B       0.016100
     64 H20         -8.5820    -0.9230    -1.6550 hc         1 99B       0.087700
     65 H21         -8.2710     2.1850    -1.4730 hc         1 99B       0.079700
     66 H21A        -8.5970     1.2150    -2.9910 hc         1 99B       0.079700
     67 H22        -10.7300     0.3390    -1.9700 hc         1 99B       0.079700
     68 H22A       -10.4020     1.3130    -0.4560 hc         1 99B       0.079700
     69 H23         -3.9810     0.6140     2.5190 ha         1 99B       0.123000
     70 H24         -6.4510     0.3990     2.5010 ha         1 99B       0.135000
     71 H27          6.5410    -2.9000    -0.2000 ha         1 99B       0.108000
     72 H29          3.7990    -4.6600    -0.8620 hc         1 99B       0.045367
     73 H29A         5.2740    -4.7800     0.0970 hc         1 99B       0.045367
     74 H29B         3.7220    -4.6330     0.9130 hc         1 99B       0.045367
@<TRIPOS>BOND
     1     1     2 1   
     2     1     4 1   
     3     1    10 1   
     4     1    38 1   
     5     2    12 1   
     6     2    39 1   
     7     3    16 2   
     8     4     7 1   
     9     4    40 1   
    10     4    41 1   
    11     5    16 1   
    12     5    17 1   
    13     5    42 1   
    14     6    27 2   
    15     7    43 1   
    16     7    44 1   
    17     7    45 1   
    18     8    19 1   
    19     8    20 1   
    20     8    24 1   
    21     9    34 2   
    22    10    46 1   
    23    10    47 1   
    24    10    48 1   
    25    11    24 ar  
    26    11    25 ar  
    27    12    14 ar  
    28    12    33 ar  
    29    13    34 1   
    30    13    49 1   
    31    13    50 1   
    32    14    15 ar  
    33    14    51 1   
    34    15    16 1   
    35    15    36 ar  
    36    17    18 1   
    37    17    21 1   
    38    17    52 1   
    39    18    19 1   
    40    18    53 1   
    41    18    54 1   
    42    19    23 1   
    43    19    55 1   
    44    20    21 1   
    45    20    22 1   
    46    20    56 1   
    47    21    57 1   
    48    21    58 1   
    49    22    23 1   
    50    22    59 1   
    51    22    60 1   
    52    23    61 1   
    53    23    62 1   
    54    24    31 ar  
    55    25    26 ar  
    56    25    63 1   
    57    26    27 1   
    58    26    32 ar  
    59    27    28 1   
    60    28    29 1   
    61    28    30 1   
    62    28    64 1   
    63    29    30 1   
    64    29    65 1   
    65    29    66 1   
    66    30    67 1   
    67    30    68 1   
    68    31    32 ar  
    69    31    69 1   
    70    32    70 1   
    71    33    34 1   
    72    33    35 ar  
    73    35    36 ar  
    74    35    71 1   
    75    36    37 1   
    76    37    72 1   
    77    37    73 1   
    78    37    74 1   
@<TRIPOS>SUBSTRUCTURE
     1 99B         1 TEMP              0 ****  ****    0 ROOT
