@<TRIPOS>MOLECULE
99E
   49    51     1     0     0
SMALL
abcg2


@<TRIPOS>ATOM
      1 O1           1.7360    -0.4900     2.0340 oh         1 99E      -0.530100
      2 C11          2.8100     0.9180    -0.2500 ca         1 99E      -0.126300
      3 C21          5.1870    -1.9640     0.2800 ca         1 99E      -0.127000
      4 C7          -3.5340     0.8700     2.0160 c3         1 99E      -0.011100
      5 C8          -4.3830     2.1350     1.9140 c3         1 99E      -0.077100
      6 C10         -5.8090    -2.1530    -0.7710 c3         1 99E      -0.194100
      7 C1          -0.8030     1.3700     0.4470 c          1 99E       0.633700
      8 C2          -1.9650     0.5750     0.0200 cc         1 99E      -0.263600
      9 N3          -1.9870    -0.1220    -1.1660 na         1 99E      -0.089000
     10 C4          -3.1350    -0.7950    -1.3140 cc         1 99E      -0.095300
     11 C5          -3.9050    -0.5510    -0.1710 cd         1 99E      -0.260600
     12 C6          -3.1500     0.3300     0.6730 cd         1 99E      -0.004300
     13 C9          -5.2310    -1.0880     0.1270 c          1 99E       0.609700
     14 C12         -3.3730    -1.5790    -2.5570 c3         1 99E      -0.037800
     15 N13          0.3810     1.0020    -0.0810 ns         1 99E      -0.492900
     16 O15         -0.9100     2.3140     1.2210 o          1 99E      -0.589100
     17 O16         -5.8740    -0.6970     1.0870 o          1 99E      -0.539100
     18 C3           1.6200     1.6410     0.3320 c3         1 99E       0.163300
     19 C13          3.3650     1.4360    -1.4060 ca         1 99E       0.140100
     20 C14          4.5190     0.8710    -1.9900 ca         1 99E      -0.183000
     21 C15          5.1000    -0.2200    -1.4230 ca         1 99E      -0.060000
     22 C16          4.5600    -0.8200    -0.2640 ca         1 99E      -0.045000
     23 C17          3.3910    -0.2580     0.3270 ca         1 99E      -0.008000
     24 C18          2.8720    -0.9460     1.4710 ca         1 99E       0.144100
     25 C19          3.5030    -2.0580     1.9760 ca         1 99E      -0.211000
     26 C20          4.6690    -2.5700     1.3870 ca         1 99E      -0.072000
     27 H1           1.4800    -1.0590     2.7680 ho         1 99E       0.470000
     28 H2           6.0770    -2.3490    -0.2020 ha         1 99E       0.117000
     29 H3          -2.6310     1.0970     2.5830 hc         1 99E       0.056700
     30 H4          -4.0770     0.1120     2.5770 hc         1 99E       0.056700
     31 H5          -3.8360     2.9240     1.3990 hc         1 99E       0.036700
     32 H6          -5.3060     1.9470     1.3700 hc         1 99E       0.036700
     33 H7          -4.6480     2.5040     2.9060 hc         1 99E       0.036700
     34 H8          -5.1190    -2.9830    -0.9140 hc         1 99E       0.055033
     35 H9          -6.7340    -2.5340    -0.3420 hc         1 99E       0.055033
     36 H10         -6.0360    -1.7490    -1.7590 hc         1 99E       0.055033
     37 H11         -1.2830    -0.0600    -1.8860 hn         1 99E       0.348000
     38 H12         -3.4150    -2.6500    -2.3570 hc         1 99E       0.051700
     39 H13         -4.3090    -1.2990    -3.0410 hc         1 99E       0.051700
     40 H14         -2.5700    -1.4130    -3.2730 hc         1 99E       0.051700
     41 H15          0.4620     0.0920    -0.5050 hn         1 99E       0.304500
     42 H16          1.6830     1.6820     1.4170 h1         1 99E       0.070200
     43 H17          1.6180     2.6750    -0.0100 h1         1 99E       0.070200
     44 H18          4.9390     1.3100    -2.8870 ha         1 99E       0.117000
     45 H19          5.9900    -0.6490    -1.8680 ha         1 99E       0.118000
     46 H20          3.0840    -2.5570     2.8440 ha         1 99E       0.115000
     47 H21          5.1400    -3.4460     1.8130 ha         1 99E       0.117000
     48 H22          3.3010     2.8060    -2.7370 ho         1 99E       0.466000
     49 O22          2.7870     2.5120    -1.9770 oh         1 99E      -0.529100
@<TRIPOS>BOND
     1     1    24 1   
     2     1    27 1   
     3     2    18 1   
     4     2    19 ar  
     5     2    23 ar  
     6     3    22 ar  
     7     3    26 ar  
     8     3    28 1   
     9     4     5 1   
    10     4    12 1   
    11     4    29 1   
    12     4    30 1   
    13     5    31 1   
    14     5    32 1   
    15     5    33 1   
    16     6    13 1   
    17     6    34 1   
    18     6    35 1   
    19     6    36 1   
    20     7     8 1   
    21     7    15 1   
    22     7    16 2   
    23     8     9 1   
    24     8    12 2   
    25     9    10 1   
    26     9    37 1   
    27    10    11 2   
    28    10    14 1   
    29    11    12 1   
    30    11    13 1   
    31    13    17 2   
    32    14    38 1   
    33    14    39 1   
    34    14    40 1   
    35    15    18 1   
    36    15    41 1   
    37    18    42 1   
    38    18    43 1   
    39    19    20 ar  
    40    19    49 1   
    41    20    21 ar  
    42    20    44 1   
    43    21    22 ar  
    44    21    45 1   
    45    22    23 ar  
    46    23    24 ar  
    47    24    25 ar  
    48    25    26 ar  
    49    25    46 1   
    50    26    47 1   
    51    48    49 1   
@<TRIPOS>SUBSTRUCTURE
     1 99E         1 TEMP              0 ****  ****    0 ROOT
