@<TRIPOS>MOLECULE
99E
   49    51     1     0     0
SMALL
No Charge or Current Charge


@<TRIPOS>ATOM
      1 O1           2.1040    -1.0310     2.1700 oh         1 99E      -0.530100
      2 C11          2.8360     0.9550     0.0220 ca         1 99E      -0.126300
      3 C21          5.3420    -1.8310    -0.3320 ca         1 99E      -0.127000
      4 C7          -3.9160     1.3670     1.6730 c3         1 99E      -0.011100
      5 C8          -4.3590     2.6890     1.0170 c3         1 99E      -0.077100
      6 C10         -6.1640    -1.8840    -0.9520 c3         1 99E      -0.194100
      7 C1          -0.8500     1.1540     0.9090 c          1 99E       0.633700
      8 C2          -1.9490     0.2970     0.3700 cc         1 99E      -0.263600
      9 N3          -1.8520    -0.7490    -0.5500 na         1 99E      -0.089000
     10 C4          -3.0950    -1.2840    -0.8530 cc         1 99E      -0.095300
     11 C5          -4.0150    -0.5720    -0.1010 cd         1 99E      -0.260600
     12 C6          -3.2950     0.3980     0.6790 cd         1 99E      -0.004300
     13 C9          -5.5150    -0.7800    -0.1150 c          1 99E       0.609700
     14 C12         -3.2200    -2.4110    -1.8520 c3         1 99E      -0.037800
     15 N13          0.3950     0.7990     0.4470 ns         1 99E      -0.492900
     16 O15         -0.9900     2.0940     1.6770 o          1 99E      -0.589100
     17 O16         -6.2690    -0.0720     0.5390 o          1 99E      -0.539100
     18 C3           1.6380     1.4620     0.8420 c3         1 99E       0.163300
     19 C13          3.2830     1.7710    -1.0510 ca         1 99E       0.140100
     20 C14          4.3750     1.3960    -1.8390 ca         1 99E      -0.183000
     21 C15          5.0470     0.2010    -1.5810 ca         1 99E      -0.060000
     22 C16          4.6270    -0.6360    -0.5360 ca         1 99E      -0.045000
     23 C17          3.5150    -0.2890     0.2870 ca         1 99E      -0.008000
     24 C18          3.1550    -1.2180     1.3200 ca         1 99E       0.144100
     25 C19          3.8850    -2.4060     1.5050 ca         1 99E      -0.211000
     26 C20          4.9750    -2.7140     0.6860 ca         1 99E      -0.072000
     27 H1           2.0620    -1.7950     2.7820 ho         1 99E       0.470000
     28 H2           6.1890    -2.0790    -0.9680 ha         1 99E       0.117000
     29 H3          -3.2280     1.5860     2.4940 hc         1 99E       0.056700
     30 H4          -4.7710     0.9120     2.1830 hc         1 99E       0.056700
     31 H5          -3.5010     3.2020     0.5650 hc         1 99E       0.036700
     32 H6          -5.1010     2.5040     0.2320 hc         1 99E       0.036700
     33 H7          -4.8050     3.3570     1.7630 hc         1 99E       0.036700
     34 H8          -5.7170    -2.8480    -0.6950 hc         1 99E       0.055033
     35 H9          -7.2530    -1.9140    -0.8270 hc         1 99E       0.055033
     36 H10         -5.9040    -1.7410    -2.0050 hc         1 99E       0.055033
     37 H11         -0.9890    -1.0780    -0.9710 hn         1 99E       0.348000
     38 H12         -3.6520    -3.3090    -1.3970 hc         1 99E       0.051700
     39 H13         -3.8250    -2.1170    -2.7170 hc         1 99E       0.051700
     40 H14         -2.2360    -2.7000    -2.2420 hc         1 99E       0.051700
     41 H15          0.4610     0.0000    -0.1630 hn         1 99E       0.304500
     42 H16          1.8120     1.3240     1.9150 h1         1 99E       0.070200
     43 H17          1.5040     2.5430     0.7130 h1         1 99E       0.070200
     44 H18          4.7110     2.0280    -2.6570 ha         1 99E       0.117000
     45 H19          5.8960    -0.0780    -2.2010 ha         1 99E       0.118000
     46 H20          3.6070    -3.1060     2.2900 ha         1 99E       0.115000
     47 H21          5.5330    -3.6360     0.8370 ha         1 99E       0.117000
     48 H22          3.1100     3.3540    -2.1210 ho         1 99E       0.466000
     49 O22          2.6580     2.9490    -1.3510 oh         1 99E      -0.529100
@<TRIPOS>BOND
     1     1    24 1   
     2     1    27 1   
     3     2    18 1   
     4     2    19 ar  
     5     2    23 ar  
     6     3    22 ar  
     7     3    26 ar  
     8     3    28 1   
     9     4     5 1   
    10     4    12 1   
    11     4    29 1   
    12     4    30 1   
    13     5    31 1   
    14     5    32 1   
    15     5    33 1   
    16     6    13 1   
    17     6    34 1   
    18     6    35 1   
    19     6    36 1   
    20     7     8 1   
    21     7    15 1   
    22     7    16 2   
    23     8     9 1   
    24     8    12 2   
    25     9    10 1   
    26     9    37 1   
    27    10    11 2   
    28    10    14 1   
    29    11    12 1   
    30    11    13 1   
    31    13    17 2   
    32    14    38 1   
    33    14    39 1   
    34    14    40 1   
    35    15    18 1   
    36    15    41 1   
    37    18    42 1   
    38    18    43 1   
    39    19    20 ar  
    40    19    49 1   
    41    20    21 ar  
    42    20    44 1   
    43    21    22 ar  
    44    21    45 1   
    45    22    23 ar  
    46    23    24 ar  
    47    24    25 ar  
    48    25    26 ar  
    49    25    46 1   
    50    26    47 1   
    51    48    49 1   
@<TRIPOS>SUBSTRUCTURE
     1 99E         1 TEMP              0 ****  ****    0 ROOT
