@<TRIPOS>MOLECULE
99K
   27    28     1     0     0
SMALL
No Charge or Current Charge


@<TRIPOS>ATOM
      1 O1           4.7920    -0.9680    -1.6020 o          1 99K      -0.407000
      2 O3           3.3430    -1.8880    -0.2570 o          1 99K      -0.407000
      3 C11         -0.1580    -0.1000     0.1480 ca         1 99K       0.652900
      4 C13         -1.9880     1.0380    -0.6690 ca         1 99K       0.432900
      5 C14         -2.8840     0.0930    -0.1360 ca         1 99K      -0.285300
      6 C15         -2.3600    -1.0200     0.5530 ca         1 99K       0.005000
      7 C16         -0.9680    -1.1210     0.6930 ca         1 99K       0.009000
      8 C18         -4.3820     0.2790    -0.3450 c3         1 99K       0.372300
      9 N2           3.8780    -0.8970    -0.7720 no         1 99K       0.711200
     10 C4           3.5340     0.4390    -0.2440 ca         1 99K      -0.303200
     11 C5           4.5180     1.4480    -0.2020 ca         1 99K       0.020000
     12 C6           4.1570     2.6990     0.3110 ca         1 99K      -0.219000
     13 C7           2.8450     2.8980     0.7590 ca         1 99K       0.432900
     14 N8           1.9020     1.9360     0.7100 nb         1 99K      -0.709000
     15 C9           2.2370     0.7450     0.1990 ca         1 99K       0.693900
     16 N10          1.2170    -0.1700     0.2100 nu         1 99K      -0.905800
     17 N12         -0.6490     0.9430    -0.5390 nb         1 99K      -0.686000
     18 Cl          -0.2720    -2.5110     1.5380 cl         1 99K      -0.159000
     19 F19         -4.7530    -0.0940    -1.5900 f          1 99K      -0.110000
     20 F20         -5.1220    -0.4480     0.5220 f          1 99K      -0.110000
     21 F21         -4.7570     1.5680    -0.1880 f          1 99K      -0.110000
     22 H1          -2.3530     1.9000    -1.2260 h4         1 99K       0.044100
     23 H2          -3.0050    -1.7930     0.9670 ha         1 99K       0.150000
     24 H3           5.5380     1.2690    -0.5440 ha         1 99K       0.155000
     25 H4           4.8790     3.5080     0.3700 ha         1 99K       0.142000
     26 H5           2.5390     3.8590     1.1710 h4         1 99K       0.033100
     27 H6           1.5560    -1.1200     0.3240 hn         1 99K       0.556000
@<TRIPOS>BOND
     1     1     9 1   
     2     2     9 1   
     3     3     7 ar  
     4     3    16 1   
     5     3    17 ar  
     6     4     5 ar  
     7     4    17 ar  
     8     4    22 1   
     9     5     6 ar  
    10     5     8 1   
    11     6     7 ar  
    12     6    23 1   
    13     7    18 1   
    14     8    19 1   
    15     8    20 1   
    16     8    21 1   
    17     9    10 1   
    18    10    11 ar  
    19    10    15 ar  
    20    11    12 ar  
    21    11    24 1   
    22    12    13 ar  
    23    12    25 1   
    24    13    14 ar  
    25    13    26 1   
    26    14    15 ar  
    27    15    16 1   
    28    16    27 1   
@<TRIPOS>SUBSTRUCTURE
     1 99K         1 TEMP              0 ****  ****    0 ROOT
