@<TRIPOS>MOLECULE
99K
   27    28     1     0     0
SMALL
bcc


@<TRIPOS>ATOM
      1 O1           5.1250    -0.9440    -1.0980 o          1 99K      -0.217000
      2 O3           3.3040    -1.8470    -0.4630 o          1 99K      -0.217000
      3 C11         -0.1400    -0.1220     0.0380 ca         1 99K       0.718200
      4 C13         -1.9630     1.1360    -0.5320 ca         1 99K       0.498200
      5 C14         -2.8540     0.1680    -0.1010 ca         1 99K      -0.350600
      6 C15         -2.3370    -1.0140     0.4190 ca         1 99K      -0.013000
      7 C16         -0.9730    -1.1590     0.4970 ca         1 99K      -0.147900
      8 C18         -4.3330     0.3400    -0.2060 c3         1 99K       0.736200
      9 N2           4.0220    -0.8750    -0.6150 no         1 99K       0.331200
     10 C4           3.5410     0.4150    -0.1900 ca         1 99K      -0.368500
     11 C5           4.4670     1.4460    -0.0950 ca         1 99K       0.002000
     12 C6           4.0510     2.6940     0.3110 ca         1 99K      -0.302300
     13 C7           2.7060     2.8510     0.6160 ca         1 99K       0.498200
     14 N8           1.8160     1.8810     0.5330 nb         1 99K      -0.709000
     15 C9           2.1850     0.6710     0.1330 ca         1 99K       0.759200
     16 N10          1.2260    -0.2990     0.0720 nu         1 99K      -0.850600
     17 N12         -0.6500     0.9830    -0.4710 nb         1 99K      -0.686000
     18 CL          -0.2960    -2.6000     1.1570 cl         1 99K      -0.067400
     19 F19         -4.8640    -0.5090    -1.0970 f          1 99K      -0.231300
     20 F20         -4.9420     0.0940     0.9610 f          1 99K      -0.231300
     21 F21         -4.6760     1.5730    -0.5820 f          1 99K      -0.231300
     22 H1          -2.3070     2.0700    -0.9580 h4         1 99K       0.044100
     23 H2          -2.9810    -1.8090     0.7720 ha         1 99K       0.168000
     24 H3           5.5070     1.2700    -0.3310 ha         1 99K       0.173000
     25 H4           4.7450     3.5160     0.4020 ha         1 99K       0.160000
     26 H5           2.3320     3.8080     0.9590 h4         1 99K       0.033100
     27 H6           1.5730    -1.2470     0.0300 hn         1 99K       0.500800
@<TRIPOS>BOND
     1     1     9 1   
     2     2     9 1   
     3     3     7 ar  
     4     3    16 1   
     5     3    17 ar  
     6     4     5 ar  
     7     4    17 ar  
     8     4    22 1   
     9     5     6 ar  
    10     5     8 1   
    11     6     7 ar  
    12     6    23 1   
    13     7    18 1   
    14     8    19 1   
    15     8    20 1   
    16     8    21 1   
    17     9    10 1   
    18    10    11 ar  
    19    10    15 ar  
    20    11    12 ar  
    21    11    24 1   
    22    12    13 ar  
    23    12    25 1   
    24    13    14 ar  
    25    13    26 1   
    26    14    15 ar  
    27    15    16 1   
    28    16    27 1   
@<TRIPOS>SUBSTRUCTURE
     1 99K         1 TEMP              0 ****  ****    0 ROOT
