@<TRIPOS>MOLECULE
99N
  102   107     1     0     0
SMALL
bcc


@<TRIPOS>ATOM
      1 O2         -12.2170     1.2820    -0.9750 o          1 99N      -0.711533
      2 O3         -13.6360    -0.3620     0.1880 o          1 99N      -0.711533
      3 C41         -2.1960    -1.2020    -0.1720 c3         1 99N      -0.076100
      4 C42         -5.7420     1.0300    -1.8540 c6         1 99N      -0.031200
      5 C43         -7.1840     0.6480    -1.7940 c2         1 99N      -0.194200
      6 C44         -7.7330    -0.1060    -0.8430 c2         1 99N      -0.087400
      7 C45         -9.1930    -0.4730    -0.9080 c6         1 99N      -0.063200
      8 C46         -6.7800    -2.1530     0.1880 c3         1 99N      -0.076100
      9 C11         -3.5280     0.9040    -0.7000 c5         1 99N      -0.063700
     10 C12         -2.5780     0.2090     0.2890 c5         1 99N      -0.037000
     11 C13         -1.3510     1.1490     0.1870 c5         1 99N      -0.055700
     12 C14         -1.2780     1.4780    -1.3300 c5         1 99N      -0.077400
     13 C15         -2.6630     1.1610    -1.9270 c5         1 99N      -0.072400
     14 C16          0.0050     0.6850     0.7430 c3         1 99N      -0.047700
     15 C17          1.0240     1.8210     0.5670 c3         1 99N      -0.067400
     16 C18          2.4470     1.4620     0.9710 c3         1 99N      -0.153400
     17 C19          3.4260     2.5980     0.7570 c          1 99N       0.659100
     18 C22          5.7910     3.1940     0.5370 c3         1 99N       0.159300
     19 C23          7.1010     2.5010     0.2910 ca         1 99N      -0.154300
     20 C24          8.0000     2.2780     1.3320 ca         1 99N      -0.075500
     21 C25          9.2060     1.6360     1.1140 ca         1 99N      -0.197500
     22 C26          9.5440     1.1930    -0.1670 ca         1 99N       0.150100
     23 C27          8.6510     1.4010    -1.2160 ca         1 99N      -0.197500
     24 C28          7.4460     2.0500    -0.9760 ca         1 99N      -0.075500
     25 C30         11.1260     0.0830    -1.5550 c3         1 99N       0.142400
     26 S1         -12.4620     0.5070     0.2460 s6         1 99N       1.496300
     27 O4         -11.2620    -0.6020     0.3270 os         1 99N      -0.578500
     28 C5          -9.9130    -0.1260     0.3870 c6         1 99N       0.213100
     29 C6          -9.2200    -0.7620     1.5750 c6         1 99N      -0.086400
     30 C7          -7.7610    -0.3250     1.6250 c6         1 99N      -0.066400
     31 C8          -6.9500    -0.6340     0.3480 c6         1 99N       0.000200
     32 C9          -5.5790     0.0810     0.4570 c6         1 99N      -0.047700
     33 C10         -4.8720     0.2230    -0.8980 c6         1 99N      -0.043700
     34 O20          3.0860     3.7750     0.7380 o          1 99N      -0.608100
     35 N21          4.7100     2.2280     0.6190 ns         1 99N      -0.580900
     36 O29         10.7380     0.5880    -0.2910 os         1 99N      -0.304900
     37 C31         12.5000    -0.5360    -1.4210 c3         1 99N       0.169800
     38 N32         12.5740    -1.5870    -0.4280 n3         1 99N      -0.705600
     39 C33         13.9490    -1.9650    -0.1590 c6         1 99N       0.127300
     40 C34         13.9970    -3.0140     0.9330 c6         1 99N       0.130400
     41 O35         13.2380    -4.1530     0.5930 os         1 99N      -0.404600
     42 C36         11.9000    -3.8000     0.3210 c6         1 99N       0.130400
     43 C37         11.8020    -2.7630    -0.7810 c6         1 99N       0.127300
     44 C38         -0.0680     0.2450     2.2020 c3         1 99N      -0.087100
     45 C39         -3.3040     0.1680     1.6340 c6         1 99N      -0.062400
     46 C40         -4.6550    -0.5400     1.5120 c6         1 99N      -0.071400
     47 O47        -12.3520     1.3030     1.4730 o          1 99N      -0.711533
     48 H1          -1.5530    -1.1840    -1.0530 hc         1 99N       0.029700
     49 H2          -1.6500    -1.7340     0.6090 hc         1 99N       0.029700
     50 H3          -3.0630    -1.8130    -0.4250 hc         1 99N       0.029700
     51 H4          -5.3830     0.9180    -2.8820 hc         1 99N       0.037200
     52 H5          -5.6390     2.1010    -1.6300 hc         1 99N       0.037200
     53 H6          -7.8160     1.0160    -2.5990 ha         1 99N       0.128000
     54 H7          -9.6700     0.0390    -1.7460 hc         1 99N       0.062700
     55 H8          -9.3050    -1.5480    -1.0850 hc         1 99N       0.062700
     56 H9          -6.0520    -2.3850    -0.5910 hc         1 99N       0.030367
     57 H10         -6.4430    -2.6220     1.1140 hc         1 99N       0.030367
     58 H11         -7.7130    -2.6420    -0.0910 hc         1 99N       0.030367
     59 H12         -3.7490     1.8880    -0.2560 hc         1 99N       0.045700
     60 H13         -1.6200     2.0680     0.7260 hc         1 99N       0.048700
     61 H14         -1.0050     2.5210    -1.4920 hc         1 99N       0.036200
     62 H15         -0.5000     0.8800    -1.8130 hc         1 99N       0.036200
     63 H16         -2.6290     0.2710    -2.5620 hc         1 99N       0.041700
     64 H17         -3.0480     1.9730    -2.5450 hc         1 99N       0.041700
     65 H18          0.3460    -0.1690     0.1420 hc         1 99N       0.041700
     66 H19          1.0340     2.1350    -0.4790 hc         1 99N       0.055200
     67 H20          0.6840     2.6870     1.1430 hc         1 99N       0.055200
     68 H21          2.5010     1.2030     2.0330 hc         1 99N       0.053700
     69 H22          2.7840     0.5730     0.4300 hc         1 99N       0.053700
     70 H23          5.8470     3.7800     1.4590 h1         1 99N       0.055200
     71 H24          5.5820     3.8990    -0.2710 h1         1 99N       0.055200
     72 H25          7.7570     2.6140     2.3330 ha         1 99N       0.135000
     73 H26          9.8960     1.4750     1.9320 ha         1 99N       0.140500
     74 H27          8.8770     1.0780    -2.2230 ha         1 99N       0.140500
     75 H28          6.7680     2.2110    -1.8070 ha         1 99N       0.135000
     76 H29         10.3930    -0.6450    -1.9190 h1         1 99N       0.035200
     77 H30         11.1800     0.8850    -2.2990 h1         1 99N       0.035200
     78 H31         -9.8910     0.9620     0.5190 h1         1 99N       0.048700
     79 H32         -9.7200    -0.4610     2.4990 hc         1 99N       0.051700
     80 H33         -9.3020    -1.8510     1.5110 hc         1 99N       0.051700
     81 H34         -7.7280     0.7560     1.8010 hc         1 99N       0.032700
     82 H35         -7.2770    -0.7900     2.4870 hc         1 99N       0.032700
     83 H36         -5.7910     1.1100     0.7870 hc         1 99N       0.048700
     84 H37         -4.7120    -0.7720    -1.3350 hc         1 99N       0.049700
     85 H38          4.9500     1.2520     0.6960 hn         1 99N       0.314500
     86 H39         12.7970    -0.8850    -2.4240 h1         1 99N       0.042700
     87 H40         13.2120     0.2460    -1.1430 h1         1 99N       0.042700
     88 H42         14.4550    -2.3490    -1.0630 h1         1 99N       0.039200
     89 H43         14.5090    -1.0860     0.1720 h1         1 99N       0.039200
     90 H44         15.0250    -3.3430     1.0940 h1         1 99N       0.052200
     91 H45         13.6310    -2.5760     1.8730 h1         1 99N       0.052200
     92 H46         11.3750    -4.7100     0.0250 h1         1 99N       0.052200
     93 H47         11.4140    -3.4100     1.2270 h1         1 99N       0.052200
     94 H48         10.7490    -2.5020    -0.9070 h1         1 99N       0.039200
     95 H49         12.1420    -3.2010    -1.7370 h1         1 99N       0.039200
     96 H50         -0.4620     1.0450     2.8340 hc         1 99N       0.031700
     97 H51         -0.7090    -0.6260     2.3310 hc         1 99N       0.031700
     98 H52          0.9120    -0.0320     2.5910 hc         1 99N       0.031700
     99 H53         -2.7170    -0.3380     2.4020 hc         1 99N       0.035700
    100 H54         -3.4570     1.1950     1.9880 hc         1 99N       0.035700
    101 H55         -5.1440    -0.5340     2.4890 hc         1 99N       0.038700
    102 H56         -4.4760    -1.5930     1.2790 hc         1 99N       0.038700
@<TRIPOS>BOND
     1     1    26 1   
     2     2    26 1   
     3     3    10 1   
     4     3    48 1   
     5     3    49 1   
     6     3    50 1   
     7     4     5 1   
     8     4    33 1   
     9     4    51 1   
    10     4    52 1   
    11     5     6 2   
    12     5    53 1   
    13     6     7 1   
    14     6    31 1   
    15     7    28 1   
    16     7    54 1   
    17     7    55 1   
    18     8    31 1   
    19     8    56 1   
    20     8    57 1   
    21     8    58 1   
    22     9    10 1   
    23     9    13 1   
    24     9    33 1   
    25     9    59 1   
    26    10    11 1   
    27    10    45 1   
    28    11    12 1   
    29    11    14 1   
    30    11    60 1   
    31    12    13 1   
    32    12    61 1   
    33    12    62 1   
    34    13    63 1   
    35    13    64 1   
    36    14    15 1   
    37    14    44 1   
    38    14    65 1   
    39    15    16 1   
    40    15    66 1   
    41    15    67 1   
    42    16    17 1   
    43    16    68 1   
    44    16    69 1   
    45    17    34 2   
    46    17    35 1   
    47    18    19 1   
    48    18    35 1   
    49    18    70 1   
    50    18    71 1   
    51    19    20 ar  
    52    19    24 ar  
    53    20    21 ar  
    54    20    72 1   
    55    21    22 ar  
    56    21    73 1   
    57    22    23 ar  
    58    22    36 1   
    59    23    24 ar  
    60    23    74 1   
    61    24    75 1   
    62    25    36 1   
    63    25    37 1   
    64    25    76 1   
    65    25    77 1   
    66    26    27 1   
    67    26    47 1   
    68    27    28 1   
    69    28    29 1   
    70    28    78 1   
    71    29    30 1   
    72    29    79 1   
    73    29    80 1   
    74    30    31 1   
    75    30    81 1   
    76    30    82 1   
    77    31    32 1   
    78    32    33 1   
    79    32    46 1   
    80    32    83 1   
    81    33    84 1   
    82    35    85 1   
    83    37    38 1   
    84    37    86 1   
    85    37    87 1   
    86    38    39 1   
    87    38    43 1   
    88    39    40 1   
    89    39    88 1   
    90    39    89 1   
    91    40    41 1   
    92    40    90 1   
    93    40    91 1   
    94    41    42 1   
    95    42    43 1   
    96    42    92 1   
    97    42    93 1   
    98    43    94 1   
    99    43    95 1   
   100    44    96 1   
   101    44    97 1   
   102    44    98 1   
   103    45    46 1   
   104    45    99 1   
   105    45   100 1   
   106    46   101 1   
   107    46   102 1   
@<TRIPOS>SUBSTRUCTURE
     1 99N         1 TEMP              0 ****  ****    0 ROOT
