@<TRIPOS>MOLECULE
99N
  102   107     1     0     0
SMALL
No Charge or Current Charge


@<TRIPOS>ATOM
      1 O2         -10.9640    -0.2130    -3.0670 o          1 99N      -0.711533
      2 O3         -12.5910    -1.7830    -2.0670 o          1 99N      -0.711533
      3 C41         -1.3630    -0.7580     1.4620 c3         1 99N      -0.076100
      4 C42         -4.3330     0.0090    -2.0370 c6         1 99N      -0.031200
      5 C43         -5.7100    -0.5750    -2.2930 c2         1 99N      -0.244200
      6 C44         -6.5420    -1.0260    -1.3390 c2         1 99N      -0.087400
      7 C45         -7.9060    -1.6110    -1.7210 c6         1 99N      -0.063200
      8 C46         -5.8190    -2.5110     0.5310 c3         1 99N      -0.076100
      9 C11         -2.6270     0.7540    -0.2920 c5         1 99N      -0.063700
     10 C12         -2.0070     0.6320     1.1360 c5         1 99N      -0.037000
     11 C13         -0.9140     1.7830     0.9770 c5         1 99N      -0.055700
     12 C14         -0.2940     1.4640    -0.4310 c5         1 99N      -0.077400
     13 C15         -1.3820     0.6610    -1.2120 c5         1 99N      -0.072400
     14 C16          0.2080     1.9700     2.1250 c3         1 99N      -0.047700
     15 C17          1.2670     3.1060     1.8120 c3         1 99N      -0.067400
     16 C18          2.4960     3.1640     2.7580 c3         1 99N      -0.153400
     17 C19          3.5750     4.1040     2.2100 c          1 99N       0.592100
     18 C22          5.8320     4.1760     1.1250 c3         1 99N       0.159300
     19 C23          6.8480     3.1850     0.5810 ca         1 99N      -0.154300
     20 C24          7.9000     2.7270     1.3960 ca         1 99N      -0.057500
     21 C25          8.8350     1.8080     0.8910 ca         1 99N      -0.179500
     22 C26          8.7300     1.3370    -0.4270 ca         1 99N       0.150100
     23 C27          7.6750     1.7930    -1.2460 ca         1 99N      -0.179500
     24 C28          6.7390     2.7130    -0.7410 ca         1 99N      -0.057500
     25 C30          9.6530    -0.1170    -2.1980 c3         1 99N       0.165600
     26 S1         -11.5220    -0.7990    -1.8390 s6         1 99N       1.496300
     27 O4         -10.2900    -1.6920    -1.2260 os         1 99N      -0.601700
     28 C5          -9.0670    -1.0150    -0.8910 c6         1 99N       0.236300
     29 C6          -8.7530    -1.2460     0.6050 c6         1 99N      -0.086400
     30 C7          -7.4240    -0.5610     1.0060 c6         1 99N      -0.066400
     31 C8          -6.1840    -1.0290     0.1650 c6         1 99N       0.000200
     32 C9          -4.9760    -0.0370     0.4420 c6         1 99N      -0.047700
     33 C10         -3.8100    -0.2240    -0.5930 c6         1 99N      -0.043700
     34 O20          3.4750     5.3220     2.2530 o          1 99N      -0.608100
     35 N21          4.6840     3.4790     1.6940 ns         1 99N      -0.513900
     36 O29          9.6780     0.4360    -0.8660 os         1 99N      -0.328100
     37 C31         10.8470    -1.0960    -2.3650 c3         1 99N       0.169800
     38 N32         10.8850    -2.2650    -1.4370 n3         1 99N      -0.705600
     39 C33         12.1500    -3.0530    -1.5620 c6         1 99N       0.127300
     40 C34         12.1880    -4.2520    -0.5680 c6         1 99N       0.153600
     41 O35         11.0200    -5.0890    -0.7470 os         1 99N      -0.451000
     42 C36          9.7820    -4.3650    -0.5520 c6         1 99N       0.153600
     43 C37          9.6910    -3.1660    -1.5430 c6         1 99N       0.127300
     44 C38         -0.4300     2.2070     3.5180 c3         1 99N      -0.087100
     45 C39         -3.2210     0.8610     2.1520 c6         1 99N      -0.062400
     46 C40         -4.4570    -0.0870     1.9230 c6         1 99N      -0.071400
     47 O47        -11.8140     0.1810    -0.7830 o          1 99N      -0.711533
     48 H1          -0.4910    -0.9810     0.8380 hc         1 99N       0.029700
     49 H2          -1.0200    -0.7940     2.5030 hc         1 99N       0.029700
     50 H3          -2.0690    -1.5850     1.3300 hc         1 99N       0.029700
     51 H4          -3.6210    -0.4200    -2.7560 hc         1 99N       0.037200
     52 H5          -4.3780     1.0850    -2.2560 hc         1 99N       0.037200
     53 H6          -6.0100    -0.6110    -3.3420 ha         1 99N       0.178000
     54 H7          -8.1090    -1.4400    -2.7860 hc         1 99N       0.062700
     55 H8          -7.8880    -2.7010    -1.5940 hc         1 99N       0.062700
     56 H9          -4.9190    -2.8530     0.0090 hc         1 99N       0.030367
     57 H10         -5.6510    -2.6410     1.6060 hc         1 99N       0.030367
     58 H11         -6.6170    -3.2110     0.2640 hc         1 99N       0.030367
     59 H12         -3.0710     1.7510    -0.4100 hc         1 99N       0.045700
     60 H13         -1.4260     2.7530     0.9250 hc         1 99N       0.048700
     61 H14         -0.0240     2.3860    -0.9590 hc         1 99N       0.036200
     62 H15          0.6260     0.8750    -0.3460 hc         1 99N       0.036200
     63 H16         -1.0740    -0.3790    -1.3690 hc         1 99N       0.041700
     64 H17         -1.5700     1.0880    -2.2030 hc         1 99N       0.041700
     65 H18          0.8170     1.0480     2.2440 hc         1 99N       0.041700
     66 H19          1.6450     2.9570     0.7940 hc         1 99N       0.055200
     67 H20          0.7630     4.0810     1.8090 hc         1 99N       0.055200
     68 H21          2.1820     3.5430     3.7370 hc         1 99N       0.053700
     69 H22          2.9040     2.1510     2.8620 hc         1 99N       0.053700
     70 H23          6.2940     4.7990     1.9030 h1         1 99N       0.055200
     71 H24          5.4870     4.8370     0.3190 h1         1 99N       0.055200
     72 H25          7.9920     3.0820     2.4210 ha         1 99N       0.117000
     73 H26          9.6450     1.4580     1.5240 ha         1 99N       0.122500
     74 H27          7.5640     1.4480    -2.2700 ha         1 99N       0.122500
     75 H28          5.9270     3.0580    -1.3780 ha         1 99N       0.117000
     76 H29          8.7100    -0.6460    -2.3840 h1         1 99N       0.035200
     77 H30          9.7470     0.6820    -2.9440 h1         1 99N       0.035200
     78 H31         -9.1440     0.0650    -1.0890 h1         1 99N       0.048700
     79 H32         -9.5690    -0.8340     1.2140 hc         1 99N       0.051700
     80 H33         -8.7160    -2.3210     0.8270 hc         1 99N       0.051700
     81 H34         -7.5540     0.5250     0.8970 hc         1 99N       0.032700
     82 H35         -7.2500    -0.7390     2.0750 hc         1 99N       0.032700
     83 H36         -5.3560     0.9830     0.2850 hc         1 99N       0.048700
     84 H37         -3.4340    -1.2520    -0.5310 hc         1 99N       0.049700
     85 H38          4.6920     2.4670     1.7030 hn         1 99N       0.314500
     86 H39         10.8410    -1.4560    -3.4030 h1         1 99N       0.042700
     87 H40         11.7680    -0.5090    -2.2450 h1         1 99N       0.042700
     88 H42         12.2570    -3.4420    -2.5860 h1         1 99N       0.039200
     89 H43         13.0210    -2.4090    -1.3690 h1         1 99N       0.039200
     90 H44         13.0920    -4.8530    -0.7400 h1         1 99N       0.052200
     91 H45         12.2140    -3.8820     0.4670 h1         1 99N       0.052200
     92 H46          8.9360    -5.0480    -0.7130 h1         1 99N       0.052200
     93 H47          9.7340    -4.0000     0.4840 h1         1 99N       0.052200
     94 H48          8.7670    -2.6120    -1.3260 h1         1 99N       0.039200
     95 H49          9.6000    -3.5600    -2.5660 h1         1 99N       0.039200
     96 H50         -1.1680     3.0170     3.4800 hc         1 99N       0.031700
     97 H51         -0.9200     1.2980     3.8770 hc         1 99N       0.031700
     98 H52          0.3170     2.4610     4.2760 hc         1 99N       0.031700
     99 H53         -2.8900     0.7380     3.1890 hc         1 99N       0.035700
    100 H54         -3.5600     1.9030     2.0720 hc         1 99N       0.035700
    101 H55         -5.2520     0.2050     2.6210 hc         1 99N       0.038700
    102 H56         -4.1640    -1.1060     2.2010 hc         1 99N       0.038700
@<TRIPOS>BOND
     1     1    26 1   
     2     2    26 1   
     3     3    10 1   
     4     3    48 1   
     5     3    49 1   
     6     3    50 1   
     7     4     5 1   
     8     4    33 1   
     9     4    51 1   
    10     4    52 1   
    11     5     6 2   
    12     5    53 1   
    13     6     7 1   
    14     6    31 1   
    15     7    28 1   
    16     7    54 1   
    17     7    55 1   
    18     8    31 1   
    19     8    56 1   
    20     8    57 1   
    21     8    58 1   
    22     9    10 1   
    23     9    13 1   
    24     9    33 1   
    25     9    59 1   
    26    10    11 1   
    27    10    45 1   
    28    11    12 1   
    29    11    14 1   
    30    11    60 1   
    31    12    13 1   
    32    12    61 1   
    33    12    62 1   
    34    13    63 1   
    35    13    64 1   
    36    14    15 1   
    37    14    44 1   
    38    14    65 1   
    39    15    16 1   
    40    15    66 1   
    41    15    67 1   
    42    16    17 1   
    43    16    68 1   
    44    16    69 1   
    45    17    34 2   
    46    17    35 1   
    47    18    19 1   
    48    18    35 1   
    49    18    70 1   
    50    18    71 1   
    51    19    20 ar  
    52    19    24 ar  
    53    20    21 ar  
    54    20    72 1   
    55    21    22 ar  
    56    21    73 1   
    57    22    23 ar  
    58    22    36 1   
    59    23    24 ar  
    60    23    74 1   
    61    24    75 1   
    62    25    36 1   
    63    25    37 1   
    64    25    76 1   
    65    25    77 1   
    66    26    27 1   
    67    26    47 1   
    68    27    28 1   
    69    28    29 1   
    70    28    78 1   
    71    29    30 1   
    72    29    79 1   
    73    29    80 1   
    74    30    31 1   
    75    30    81 1   
    76    30    82 1   
    77    31    32 1   
    78    32    33 1   
    79    32    46 1   
    80    32    83 1   
    81    33    84 1   
    82    35    85 1   
    83    37    38 1   
    84    37    86 1   
    85    37    87 1   
    86    38    39 1   
    87    38    43 1   
    88    39    40 1   
    89    39    88 1   
    90    39    89 1   
    91    40    41 1   
    92    40    90 1   
    93    40    91 1   
    94    41    42 1   
    95    42    43 1   
    96    42    92 1   
    97    42    93 1   
    98    43    94 1   
    99    43    95 1   
   100    44    96 1   
   101    44    97 1   
   102    44    98 1   
   103    45    46 1   
   104    45    99 1   
   105    45   100 1   
   106    46   101 1   
   107    46   102 1   
@<TRIPOS>SUBSTRUCTURE
     1 99N         1 TEMP              0 ****  ****    0 ROOT
