@<TRIPOS>MOLECULE
99P
   50    52     1     0     0
SMALL
bcc


@<TRIPOS>ATOM
      1 N4           3.0290     1.6400     1.2250 n8         1 99P      -0.871800
      2 C3           2.6660     0.4750     0.4500 c3         1 99P       0.101500
      3 C5           1.2260     0.6180    -0.0180 c          1 99P       0.684100
      4 O7           0.7640     1.7180    -0.2980 o          1 99P      -0.600100
      5 C2           3.5280     0.2270    -0.8140 c3         1 99P      -0.075100
      6 C1           4.9750     0.0260    -0.4730 ca         1 99P      -0.088300
      7 C8           5.8680     1.0960    -0.4650 ca         1 99P      -0.128000
      8 C12          5.4460    -1.2350    -0.1080 ca         1 99P      -0.128000
      9 C9           7.1970     0.9120    -0.1070 ca         1 99P      -0.123500
     10 C11          6.7730    -1.4230     0.2510 ca         1 99P      -0.123500
     11 C10          7.6540    -0.3490     0.2530 ca         1 99P      -0.126000
     12 N6           0.5130    -0.5060    -0.1970 n          1 99P      -0.467800
     13 C13         -0.8150    -0.4240    -0.7650 c5         1 99P       0.028700
     14 C14         -1.7820     0.2370     0.2110 c          1 99P       0.665100
     15 O15         -1.6550     0.1260     1.4200 o          1 99P      -0.591100
     16 C19         -1.1890    -1.8940    -0.9980 c5         1 99P      -0.084400
     17 C20         -0.4310    -2.6350     0.0970 c5         1 99P      -0.093400
     18 C21          0.8760    -1.8590     0.2170 c5         1 99P       0.113000
     19 N16         -2.7970     0.8880    -0.3790 ns         1 99P      -0.567900
     20 C17         -3.9030     1.4830     0.3370 c3         1 99P       0.150300
     21 C18         -5.1440     0.6330     0.2900 ca         1 99P      -0.230600
     22 C22         -6.2950     1.0870    -0.3400 ca         1 99P       0.406200
     23 N23         -7.4220     0.3880    -0.4270 nb         1 99P      -0.666000
     24 C24         -7.4440    -0.8190     0.1200 ca         1 99P       0.403200
     25 C25         -6.3520    -1.3760     0.7730 ca         1 99P      -0.251300
     26 C26         -5.1850    -0.6370     0.8580 ca         1 99P      -0.076000
     27 H4           3.9700     1.5310     1.5790 hn         1 99P       0.353800
     28 H5           3.0360     2.4640     0.6360 hn         1 99P       0.353800
     29 H3           2.7700    -0.3940     1.1040 h1         1 99P       0.071700
     30 H1           3.1510    -0.6470    -1.3520 hc         1 99P       0.058700
     31 H2           3.4130     1.0840    -1.4830 hc         1 99P       0.058700
     32 H7           5.5220     2.0820    -0.7540 ha         1 99P       0.128000
     33 H11          4.7660    -2.0800    -0.1100 ha         1 99P       0.128000
     34 H8           7.8770     1.7540    -0.1100 ha         1 99P       0.132500
     35 H10          7.1210    -2.4110     0.5260 ha         1 99P       0.132500
     36 H9           8.6900    -0.4950     0.5290 ha         1 99P       0.133000
     37 H12         -0.7970     0.1330    -1.7050 h1         1 99P       0.075700
     38 H16         -2.2660    -2.0620    -0.9750 hc         1 99P       0.057200
     39 H17         -0.8320    -2.1970    -1.9840 hc         1 99P       0.057200
     40 H18         -0.9820    -2.6000     1.0370 hc         1 99P       0.062700
     41 H19         -0.2590    -3.6820    -0.1470 hc         1 99P       0.062700
     42 H20          1.6410    -2.2760    -0.4440 h1         1 99P       0.047700
     43 H21          1.2650    -1.8750     1.2350 h1         1 99P       0.047700
     44 H13         -2.8290     0.9240    -1.3850 hn         1 99P       0.313500
     45 H14         -3.5930     1.6480     1.3680 h1         1 99P       0.070200
     46 H15         -4.1120     2.4640    -0.0940 h1         1 99P       0.070200
     47 H22         -6.3030     2.0720    -0.7990 h4         1 99P       0.016100
     48 H23         -8.3720    -1.3740     0.0380 h4         1 99P       0.019100
     49 H24         -6.4220    -2.3640     1.2060 ha         1 99P       0.142000
     50 H25         -4.3180    -1.0410     1.3670 ha         1 99P       0.149000
@<TRIPOS>BOND
     1     1     2 1   
     2     1    27 1   
     3     1    28 1   
     4     2     3 1   
     5     2     5 1   
     6     2    29 1   
     7     3     4 2   
     8     3    12 1   
     9     5     6 1   
    10     5    30 1   
    11     5    31 1   
    12     6     7 ar  
    13     6     8 ar  
    14     7     9 ar  
    15     7    32 1   
    16     8    10 ar  
    17     8    33 1   
    18     9    11 ar  
    19     9    34 1   
    20    10    11 ar  
    21    10    35 1   
    22    11    36 1   
    23    12    13 1   
    24    12    18 1   
    25    13    14 1   
    26    13    16 1   
    27    13    37 1   
    28    14    15 2   
    29    14    19 1   
    30    16    17 1   
    31    16    38 1   
    32    16    39 1   
    33    17    18 1   
    34    17    40 1   
    35    17    41 1   
    36    18    42 1   
    37    18    43 1   
    38    19    20 1   
    39    19    44 1   
    40    20    21 1   
    41    20    45 1   
    42    20    46 1   
    43    21    22 ar  
    44    21    26 ar  
    45    22    23 ar  
    46    22    47 1   
    47    23    24 ar  
    48    24    25 ar  
    49    24    48 1   
    50    25    26 ar  
    51    25    49 1   
    52    26    50 1   
@<TRIPOS>SUBSTRUCTURE
     1 99P         1 TEMP              0 ****  ****    0 ROOT
