@<TRIPOS>MOLECULE
99P
   50    52     1     0     0
SMALL
No Charge or Current Charge


@<TRIPOS>ATOM
      1 N4           3.4390     1.7660     1.3100 n8         1 99P      -0.982200
      2 C3           2.7920     0.7150     0.4500 c3         1 99P       0.101500
      3 C5           1.3210     1.0240    -0.0430 c          1 99P       0.617100
      4 O7           0.9190     2.1800    -0.1540 o          1 99P      -0.600100
      5 C2           3.7200     0.3790    -0.7480 c3         1 99P      -0.075100
      6 C1           5.1090    -0.0910    -0.3250 ca         1 99P      -0.088300
      7 C8           6.2380     0.7240    -0.5420 ca         1 99P      -0.110000
      8 C12          5.2740    -1.3530     0.2810 ca         1 99P      -0.110000
      9 C9           7.5150     0.2850    -0.1510 ca         1 99P      -0.105500
     10 C11          6.5510    -1.7910     0.6720 ca         1 99P      -0.105500
     11 C10          7.6720    -0.9730     0.4570 ca         1 99P      -0.108000
     12 N6           0.4670    -0.0520    -0.3840 n          1 99P      -0.400800
     13 C13         -0.9150     0.1670    -0.8970 c5         1 99P       0.028700
     14 C14         -1.9450     0.6000     0.1980 c          1 99P       0.598100
     15 O15         -1.7920     0.5880     1.4130 o          1 99P      -0.591100
     16 C19         -1.2620    -1.2600    -1.4200 c5         1 99P      -0.084400
     17 C20         -0.5790    -2.1680    -0.3680 c5         1 99P      -0.093400
     18 C21          0.8010    -1.4830    -0.1940 c5         1 99P       0.113000
     19 N16         -3.1010     1.0400    -0.4140 ns         1 99P      -0.500900
     20 C17         -4.3010     1.4780     0.2980 c3         1 99P       0.150300
     21 C18         -5.3250     0.3600     0.3780 ca         1 99P      -0.165300
     22 C22         -6.4840     0.3900    -0.4240 ca         1 99P       0.340900
     23 N23         -7.4300    -0.5780    -0.3970 nb         1 99P      -0.666000
     24 C24         -7.2420    -1.6200     0.4450 ca         1 99P       0.337900
     25 C25         -6.1180    -1.7330     1.2800 ca         1 99P      -0.168000
     26 C26         -5.1390    -0.7270     1.2520 ca         1 99P      -0.058000
     27 H4           4.4410     1.5510     1.3840 hn         1 99P       0.409000
     28 H5           3.4200     2.6620     0.8070 hn         1 99P       0.409000
     29 H3           2.7280    -0.1860     1.0730 h1         1 99P       0.071700
     30 H1           3.2520    -0.3980    -1.3630 hc         1 99P       0.058700
     31 H2           3.7930     1.2600    -1.3990 hc         1 99P       0.058700
     32 H7           6.1290     1.6980    -1.0120 ha         1 99P       0.110000
     33 H11          4.4120    -1.9950     0.4490 ha         1 99P       0.110000
     34 H8           8.3830     0.9190    -0.3200 ha         1 99P       0.114500
     35 H10          6.6710    -2.7660     1.1400 ha         1 99P       0.114500
     36 H9           8.6610    -1.3120     0.7580 ha         1 99P       0.115000
     37 H12         -0.9340     0.9080    -1.7070 h1         1 99P       0.075700
     38 H16         -2.3400    -1.4440    -1.5040 hc         1 99P       0.057200
     39 H17         -0.8310    -1.4250    -2.4150 hc         1 99P       0.057200
     40 H18         -1.1380    -2.1750     0.5760 hc         1 99P       0.062700
     41 H19         -0.4890    -3.2090    -0.6980 hc         1 99P       0.062700
     42 H20          1.5090    -1.8230    -0.9610 h1         1 99P       0.047700
     43 H21          1.2250    -1.6940     0.7960 h1         1 99P       0.047700
     44 H13         -3.1250     1.0170    -1.4270 hn         1 99P       0.313500
     45 H14         -4.0360     1.8120     1.3100 h1         1 99P       0.070200
     46 H15         -4.7280     2.3410    -0.2310 h1         1 99P       0.070200
     47 H22         -6.6620     1.2160    -1.1120 h4         1 99P       0.016100
     48 H23         -8.0160    -2.3870     0.4490 h4         1 99P       0.019100
     49 H24         -6.0140    -2.5910     1.9390 ha         1 99P       0.124000
     50 H25         -4.2590    -0.7910     1.8900 ha         1 99P       0.131000
@<TRIPOS>BOND
     1     1     2 1   
     2     1    27 1   
     3     1    28 1   
     4     2     3 1   
     5     2     5 1   
     6     2    29 1   
     7     3     4 2   
     8     3    12 1   
     9     5     6 1   
    10     5    30 1   
    11     5    31 1   
    12     6     7 ar  
    13     6     8 ar  
    14     7     9 ar  
    15     7    32 1   
    16     8    10 ar  
    17     8    33 1   
    18     9    11 ar  
    19     9    34 1   
    20    10    11 ar  
    21    10    35 1   
    22    11    36 1   
    23    12    13 1   
    24    12    18 1   
    25    13    14 1   
    26    13    16 1   
    27    13    37 1   
    28    14    15 2   
    29    14    19 1   
    30    16    17 1   
    31    16    38 1   
    32    16    39 1   
    33    17    18 1   
    34    17    40 1   
    35    17    41 1   
    36    18    42 1   
    37    18    43 1   
    38    19    20 1   
    39    19    44 1   
    40    20    21 1   
    41    20    45 1   
    42    20    46 1   
    43    21    22 ar  
    44    21    26 ar  
    45    22    23 ar  
    46    22    47 1   
    47    23    24 ar  
    48    24    25 ar  
    49    24    48 1   
    50    25    26 ar  
    51    25    49 1   
    52    26    50 1   
@<TRIPOS>SUBSTRUCTURE
     1 99P         1 TEMP              0 ****  ****    0 ROOT
