@<TRIPOS>MOLECULE
99S
   54    57     1     0     0
SMALL
bcc


@<TRIPOS>ATOM
      1 O31          6.8320     0.1940     0.2850 o          1 99S      -0.525000
      2 C30          5.6900     0.5180     0.0710 c          1 99S       0.684700
      3 O32          5.3000     1.7440    -0.2430 os         1 99S      -0.423900
      4 C33          6.3010     2.7600    -0.3190 c3         1 99S       0.132700
      5 C28          4.5560    -0.4040     0.1310 cc         1 99S      -0.153700
      6 C27          4.6090    -1.7350     0.4420 cd         1 99S      -0.074000
      7 C26          3.3400    -2.3460     0.4230 cd         1 99S      -0.158000
      8 S29          2.9480     0.1050    -0.1930 ss         1 99S       0.015200
      9 C25          2.3310    -1.4720     0.1000 cc         1 99S      -0.014100
     10 C21          0.9010    -1.7580    -0.0030 ca         1 99S      -0.017000
     11 C20          0.4710    -3.0540    -0.2780 ca         1 99S      -0.075000
     12 C19         -0.8900    -3.3090    -0.3620 ca         1 99S      -0.022000
     13 C23         -1.3370    -4.6350    -0.6500 cg         1 99S       0.232800
     14 N24         -1.7000    -5.7030    -0.8810 n1         1 99S      -0.361800
     15 C18         -1.8340    -2.2970    -0.1820 ca         1 99S      -0.088000
     16 C22         -0.0510    -0.7580     0.1790 ca         1 99S      -0.085000
     17 C17         -1.4190    -1.0040     0.0950 ca         1 99S      -0.060300
     18 C4          -2.3900     0.1750     0.2340 c6         1 99S       0.199800
     19 C14         -3.8660    -0.2740     0.4460 c3         1 99S      -0.043700
     20 C16         -4.0910    -1.0560     1.7390 c3         1 99S      -0.089100
     21 C15         -4.8370     0.9000     0.3960 c3         1 99S      -0.089100
     22 C3          -1.9240     1.0950     1.3600 ce         1 99S      -0.259900
     23 C8          -1.5820     0.5300     2.6010 cg         1 99S       0.221500
     24 N9          -1.2700     0.0740     3.6190 n1         1 99S      -0.411800
     25 C2          -1.8010     2.4600     1.2590 c2         1 99S       0.404100
     26 N7          -1.5510     3.2990     2.2700 nv         1 99S      -0.851600
     27 C5          -2.2790     0.9910    -1.0190 cc         1 99S      -0.307600
     28 C10         -2.3690     0.6920    -2.3680 cd         1 99S      -0.036600
     29 C13         -2.5680    -0.5910    -3.0900 c3         1 99S      -0.036800
     30 N11         -2.2280     1.8670    -3.0060 na         1 99S      -0.003600
     31 N12         -2.0510     2.9150    -2.1950 nd         1 99S      -0.508800
     32 C6          -2.0870     2.3670    -1.0100 cc         1 99S       0.538600
     33 O1          -1.9490     3.1260     0.1040 os         1 99S      -0.333400
     34 H1           5.7720     3.6800    -0.5480 h1         1 99S       0.050367
     35 H2           6.8250     2.8700     0.6300 h1         1 99S       0.050367
     36 H3           7.0210     2.5490    -1.1090 h1         1 99S       0.050367
     37 H4           5.5270    -2.2520     0.6840 ha         1 99S       0.171000
     38 H5           3.1740    -3.3860     0.6630 ha         1 99S       0.159000
     39 H6           1.1820    -3.8520    -0.4410 ha         1 99S       0.148000
     40 H7          -2.8820    -2.5470    -0.2710 ha         1 99S       0.147000
     41 H8           0.2770     0.2500     0.4070 ha         1 99S       0.145000
     42 H9          -4.1170    -0.9250    -0.3980 hc         1 99S       0.038700
     43 H10         -4.0830    -0.3980     2.6090 hc         1 99S       0.038200
     44 H11         -5.0710    -1.5350     1.7110 hc         1 99S       0.038200
     45 H12         -3.3510    -1.8370     1.9090 hc         1 99S       0.038200
     46 H13         -4.8000     1.4370    -0.5510 hc         1 99S       0.038200
     47 H14         -5.8570     0.5330     0.5210 hc         1 99S       0.038200
     48 H15         -4.6480     1.6100     1.2040 hc         1 99S       0.038200
     49 H16         -1.3660     2.9380     3.1910 hn         1 99S       0.451300
     50 H17         -1.1830     4.2150     2.0720 hn         1 99S       0.451300
     51 H18         -3.4650    -1.1030    -2.7430 hc         1 99S       0.059367
     52 H19         -2.6720    -0.4280    -4.1610 hc         1 99S       0.059367
     53 H20         -1.7230    -1.2630    -2.9340 hc         1 99S       0.059367
     54 H21         -2.2440     2.0140    -4.0030 hn         1 99S       0.330700
@<TRIPOS>BOND
     1     1     2 2   
     2     2     3 1   
     3     2     5 1   
     4     3     4 1   
     5     4    34 1   
     6     4    35 1   
     7     4    36 1   
     8     5     6 2   
     9     5     8 1   
    10     6     7 1   
    11     6    37 1   
    12     7     9 2   
    13     7    38 1   
    14     8     9 1   
    15     9    10 1   
    16    10    11 ar  
    17    10    16 ar  
    18    11    12 ar  
    19    11    39 1   
    20    12    13 1   
    21    12    15 ar  
    22    13    14 3   
    23    15    17 ar  
    24    15    40 1   
    25    16    17 ar  
    26    16    41 1   
    27    17    18 1   
    28    18    19 1   
    29    18    22 1   
    30    18    27 1   
    31    19    20 1   
    32    19    21 1   
    33    19    42 1   
    34    20    43 1   
    35    20    44 1   
    36    20    45 1   
    37    21    46 1   
    38    21    47 1   
    39    21    48 1   
    40    22    23 1   
    41    22    25 2   
    42    23    24 3   
    43    25    26 1   
    44    25    33 1   
    45    26    49 1   
    46    26    50 1   
    47    27    28 2   
    48    27    32 1   
    49    28    29 1   
    50    28    30 1   
    51    29    51 1   
    52    29    52 1   
    53    29    53 1   
    54    30    31 1   
    55    30    54 1   
    56    31    32 2   
    57    32    33 1   
@<TRIPOS>SUBSTRUCTURE
     1 99S         1 TEMP              0 ****  ****    0 ROOT
