@<TRIPOS>MOLECULE
99S
   54    57     1     0     0
SMALL
No Charge or Current Charge


@<TRIPOS>ATOM
      1 O31          6.9490     0.1040     0.3920 o          1 99S      -0.476000
      2 C30          5.8410     0.5030     0.0610 c          1 99S       0.635700
      3 O32          5.6060     1.7620    -0.4260 os         1 99S      -0.447100
      4 C33          6.7230     2.6620    -0.5520 c3         1 99S       0.155900
      5 C28          4.6300    -0.3260     0.1460 cc         1 99S      -0.298600
      6 C27          4.5950    -1.6240     0.6030 cd         1 99S      -0.056000
      7 C26          3.2900    -2.1900     0.5750 cd         1 99S      -0.140000
      8 S29          3.0370     0.2500    -0.3280 ss         1 99S       0.305000
      9 C25          2.3440    -1.3180     0.0880 cc         1 99S      -0.159000
     10 C21          0.9290    -1.6840    -0.0090 ca         1 99S      -0.017000
     11 C20          0.5380    -3.0060    -0.2900 ca         1 99S      -0.057000
     12 C19         -0.8240    -3.3350    -0.4050 ca         1 99S      -0.022000
     13 C23         -1.2130    -4.6830    -0.7140 cg         1 99S       0.322000
     14 N24         -1.5380    -5.7760    -0.9680 n1         1 99S      -0.451000
     15 C18         -1.8060    -2.3420    -0.2320 ca         1 99S      -0.070000
     16 C22         -0.0630    -0.6980     0.1570 ca         1 99S      -0.067000
     17 C17         -1.4380    -1.0090     0.0700 ca         1 99S      -0.060300
     18 C4          -2.4650     0.1470     0.2380 c6         1 99S       0.199800
     19 C14         -3.9790    -0.3080     0.4060 c3         1 99S      -0.043700
     20 C16         -4.2780    -1.1940     1.6480 c3         1 99S      -0.089100
     21 C15         -4.9980     0.8650     0.3780 c3         1 99S      -0.089100
     22 C3          -2.0580     1.0760     1.5010 ce         1 99S      -0.259900
     23 C8          -1.7790     0.4920     2.8100 cg         1 99S       0.310700
     24 N9          -1.5160     0.0520     3.8570 n1         1 99S      -0.501000
     25 C2          -1.9330     2.4350     1.3840 c2         1 99S       0.404100
     26 N7          -1.6050     3.3250     2.3790 nv         1 99S      -0.962000
     27 C5          -2.3680     1.0300    -0.9910 cc         1 99S      -0.242300
     28 C10         -2.4220     0.7310    -2.3250 cd         1 99S      -0.087300
     29 C13         -2.5670    -0.5890    -3.0400 c3         1 99S      -0.036800
     30 N11         -2.3090     1.9770    -2.9780 na         1 99S      -0.003200
     31 N12         -2.1760     3.0490    -2.0870 nd         1 99S      -0.508800
     32 C6          -2.2060     2.4140    -0.9410 cc         1 99S       0.473300
     33 O1          -2.0850     3.1110     0.2210 os         1 99S      -0.333400
     34 H1           6.3920     3.6280    -0.9510 h1         1 99S       0.050367
     35 H2           7.1950     2.8410     0.4230 h1         1 99S       0.050367
     36 H3           7.4800     2.2530    -1.2350 h1         1 99S       0.050367
     37 H4           5.4710    -2.1650     0.9530 ha         1 99S       0.153000
     38 H5           3.0770    -3.1990     0.9140 ha         1 99S       0.141000
     39 H6           1.2890    -3.7770    -0.4430 ha         1 99S       0.130000
     40 H7          -2.8470    -2.6240    -0.3500 ha         1 99S       0.129000
     41 H8           0.2380     0.3260     0.3590 ha         1 99S       0.127000
     42 H9          -4.2370    -0.9170    -0.4680 hc         1 99S       0.038700
     43 H10         -4.3430    -0.5880     2.5600 hc         1 99S       0.038200
     44 H11         -5.2410    -1.7050     1.5270 hc         1 99S       0.038200
     45 H12         -3.5120    -1.9600     1.8070 hc         1 99S       0.038200
     46 H13         -4.9520     1.4150    -0.5690 hc         1 99S       0.038200
     47 H14         -6.0220     0.4880     0.4840 hc         1 99S       0.038200
     48 H15         -4.8120     1.5700     1.1970 hc         1 99S       0.038200
     49 H16         -1.0960     2.9430     3.1720 hn         1 99S       0.506500
     50 H17         -1.2850     4.2360     2.0640 hn         1 99S       0.506500
     51 H18         -3.4180    -1.1610    -2.6560 hc         1 99S       0.059367
     52 H19         -2.7260    -0.4470    -4.1160 hc         1 99S       0.059367
     53 H20         -1.6650    -1.2010    -2.9180 hc         1 99S       0.059367
     54 H21         -2.3180     2.1250    -3.9870 hn         1 99S       0.381000
@<TRIPOS>BOND
     1     1     2 2   
     2     2     3 1   
     3     2     5 1   
     4     3     4 1   
     5     4    34 1   
     6     4    35 1   
     7     4    36 1   
     8     5     6 2   
     9     5     8 1   
    10     6     7 1   
    11     6    37 1   
    12     7     9 2   
    13     7    38 1   
    14     8     9 1   
    15     9    10 1   
    16    10    11 ar  
    17    10    16 ar  
    18    11    12 ar  
    19    11    39 1   
    20    12    13 1   
    21    12    15 ar  
    22    13    14 3   
    23    15    17 ar  
    24    15    40 1   
    25    16    17 ar  
    26    16    41 1   
    27    17    18 1   
    28    18    19 1   
    29    18    22 1   
    30    18    27 1   
    31    19    20 1   
    32    19    21 1   
    33    19    42 1   
    34    20    43 1   
    35    20    44 1   
    36    20    45 1   
    37    21    46 1   
    38    21    47 1   
    39    21    48 1   
    40    22    23 1   
    41    22    25 2   
    42    23    24 3   
    43    25    26 1   
    44    25    33 1   
    45    26    49 1   
    46    26    50 1   
    47    27    28 2   
    48    27    32 1   
    49    28    29 1   
    50    28    30 1   
    51    29    51 1   
    52    29    52 1   
    53    29    53 1   
    54    30    31 1   
    55    30    54 1   
    56    31    32 2   
    57    32    33 1   
@<TRIPOS>SUBSTRUCTURE
     1 99S         1 TEMP              0 ****  ****    0 ROOT
