@<TRIPOS>MOLECULE
99T
   43    42     1     0     0
SMALL
abcg2


@<TRIPOS>ATOM
      1 O32         -2.5210    -4.6550     1.7730 o          1 99T      -0.740000
      2 C3          -2.2880    -5.2220     0.6890 c          1 99T       0.713000
      3 O31         -2.5680    -6.3890     0.3660 o          1 99T      -0.740000
      4 CA3         -1.5660    -4.3950    -0.3960 c3         1 99T      -0.049000
      5 N3          -1.2880    -3.0620     0.0750 ns         1 99T      -0.463900
      6 C2          -0.7000    -2.1170    -0.6550 c          1 99T       0.584100
      7 O2          -0.2930    -2.2840    -1.7960 o          1 99T      -0.657100
      8 CA2         -0.6310    -0.7430     0.0250 c3         1 99T       0.048700
      9 CB2         -1.9030     0.0230    -0.3190 c3         1 99T       0.057600
     10 SG2         -1.8820     1.6730     0.4380 ss         1 99T      -0.515000
     11 N2           0.5260    -0.0110    -0.4120 ns         1 99T      -0.487900
     12 CD1          1.7720    -0.4530    -0.1640 c          1 99T       0.601100
     13 OE1          1.9720    -1.4540     0.5130 o          1 99T      -0.622100
     14 CG1          2.8890     0.3580    -0.7740 c3         1 99T      -0.149400
     15 CB1          4.0310     0.6150     0.2000 c3         1 99T      -0.041400
     16 CA1          5.1940     1.3690    -0.4510 c3         1 99T       0.011500
     17 N1           5.7550     0.5750    -1.5340 n8         1 99T      -0.995200
     18 C1           6.2010     1.7940     0.6470 c          1 99T       0.693000
     19 O01          5.8060     2.6750     1.4390 o          1 99T      -0.744000
     20 O02          7.3060     1.2170     0.6720 o          1 99T      -0.744000
     21 C08         -3.5280     2.2470    -0.0840 c3         1 99T       0.117600
     22 C09         -3.7430     3.6760     0.3770 c3         1 99T      -0.204400
     23 C10         -5.1150     4.2640    -0.0160 c          1 99T       0.721000
     24 O11         -5.8710     3.5520    -0.7040 o          1 99T      -0.747500
     25 O12         -5.3450     5.4190     0.3950 o          1 99T      -0.747500
     26 H2          -0.6420    -4.9080    -0.6790 h1         1 99T       0.029700
     27 H3          -2.1910    -4.3660    -1.2940 h1         1 99T       0.029700
     28 H4          -1.5930    -2.8770     1.0200 hn         1 99T       0.342500
     29 H5          -0.5880    -0.8770     1.1110 h1         1 99T       0.080700
     30 H6          -2.0110     0.1200    -1.4020 h1         1 99T       0.065700
     31 H7          -2.7650    -0.5310     0.0560 h1         1 99T       0.065700
     32 H8           0.3970     0.7760    -1.0280 hn         1 99T       0.320500
     33 H9           3.2690    -0.1960    -1.6370 hc         1 99T       0.052700
     34 H10          2.5100     1.3080    -1.1600 hc         1 99T       0.052700
     35 H11          3.6660     1.1950     1.0500 hc         1 99T       0.053200
     36 H12          4.3960    -0.3350     0.6000 hc         1 99T       0.053200
     37 H13          4.7860     2.2870    -0.8900 h1         1 99T       0.031700
     38 H14          6.3590     1.1650    -2.0930 hn         1 99T       0.374500
     39 H15          6.3810    -0.1050    -1.1180 hn         1 99T       0.374500
     40 H18         -3.5930     2.1750    -1.1710 h1         1 99T       0.055200
     41 H19         -4.2810     1.5820     0.3410 h1         1 99T       0.055200
     42 H20         -3.6360     3.7410     1.4650 hc         1 99T       0.032200
     43 H21         -2.9610     4.3230    -0.0340 hc         1 99T       0.032200
@<TRIPOS>BOND
     1     1     2 1   
     2     2     3 1   
     3     2     4 1   
     4     4     5 1   
     5     4    26 1   
     6     4    27 1   
     7     5     6 1   
     8     5    28 1   
     9     6     7 2   
    10     6     8 1   
    11     8     9 1   
    12     8    11 1   
    13     8    29 1   
    14     9    10 1   
    15     9    30 1   
    16     9    31 1   
    17    10    21 1   
    18    11    12 1   
    19    11    32 1   
    20    12    13 2   
    21    12    14 1   
    22    14    15 1   
    23    14    33 1   
    24    14    34 1   
    25    15    16 1   
    26    15    35 1   
    27    15    36 1   
    28    16    17 1   
    29    16    18 1   
    30    16    37 1   
    31    17    38 1   
    32    17    39 1   
    33    18    19 1   
    34    18    20 1   
    35    21    22 1   
    36    21    40 1   
    37    21    41 1   
    38    22    23 1   
    39    22    42 1   
    40    22    43 1   
    41    23    24 1   
    42    23    25 1   
@<TRIPOS>SUBSTRUCTURE
     1 99T         1 TEMP              0 ****  ****    0 ROOT
