@<TRIPOS>MOLECULE
99T
   43    42     1     0     0
SMALL
No Charge or Current Charge


@<TRIPOS>ATOM
      1 O32         -4.0750    -4.6840     0.9450 o          1 99T      -0.740000
      2 C3          -3.5520    -5.3640     0.0710 c          1 99T       0.713000
      3 O31         -3.7610    -6.5610    -0.0640 o          1 99T      -0.740000
      4 CA3         -2.5290    -4.6870    -0.8880 c3         1 99T      -0.049000
      5 N3          -1.9180    -3.4730    -0.3000 ns         1 99T      -0.463900
      6 C2          -0.8880    -2.7510    -0.8670 c          1 99T       0.584100
      7 O2          -0.3800    -3.0880    -1.9330 o          1 99T      -0.657100
      8 CA2         -0.4300    -1.5030    -0.0580 c3         1 99T       0.048700
      9 CB2         -1.4860    -0.3740    -0.1710 c3         1 99T       0.057600
     10 SG2         -1.0480     1.1090     0.8570 ss         1 99T      -0.515000
     11 N2           0.9000    -1.0400    -0.5240 ns         1 99T      -0.487900
     12 CD1          1.9730    -0.7550     0.2910 c          1 99T       0.601100
     13 OE1          1.9520    -0.9460     1.4990 o          1 99T      -0.622100
     14 CG1          3.2170    -0.2390    -0.4390 c3         1 99T      -0.149400
     15 CB1          3.4340     1.2740    -0.1800 c3         1 99T      -0.041400
     16 CA1          4.6230     1.8970    -0.9630 c3         1 99T       0.011500
     17 N1           5.9300     1.2620    -0.5570 n8         1 99T      -0.995200
     18 C1           4.5650     3.4790    -0.8810 c          1 99T       0.693000
     19 O01          4.2880     4.1030    -1.8970 o          1 99T      -0.744000
     20 O02          4.9110     4.0230     0.1600 o          1 99T      -0.744000
     21 C08         -2.4860     2.2050     0.4600 c3         1 99T       0.117600
     22 C09         -2.3590     3.5430     1.2080 c3         1 99T      -0.204400
     23 C10         -3.5660     4.4190     0.8610 c          1 99T       0.721000
     24 O11         -3.4890     5.1430    -0.1190 o          1 99T      -0.747500
     25 O12         -4.5710     4.3140     1.5470 o          1 99T      -0.747500
     26 H2          -1.7360    -5.4090    -1.1260 h1         1 99T       0.029700
     27 H3          -3.0500    -4.4140    -1.8150 h1         1 99T       0.029700
     28 H4          -2.2880    -3.1410     0.5850 hn         1 99T       0.342500
     29 H5          -0.3610    -1.8130     0.9920 h1         1 99T       0.080700
     30 H6          -1.5800    -0.0660    -1.2210 h1         1 99T       0.065700
     31 H7          -2.4640    -0.7500     0.1580 h1         1 99T       0.065700
     32 H8           1.0360    -0.9020    -1.5190 hn         1 99T       0.320500
     33 H9           4.0900    -0.7900    -0.0700 hc         1 99T       0.052700
     34 H10          3.1100    -0.3930    -1.5190 hc         1 99T       0.052700
     35 H11          2.5170     1.8070    -0.4640 hc         1 99T       0.053200
     36 H12          3.5720     1.4480     0.8940 hc         1 99T       0.053200
     37 H13          4.4740     1.6430    -2.0220 h1         1 99T       0.031700
     38 H14          6.6850     1.6520    -1.1350 hn         1 99T       0.374500
     39 H15          6.1670     1.5900     0.3880 hn         1 99T       0.374500
     40 H18         -2.5150     2.3850    -0.6230 h1         1 99T       0.055200
     41 H19         -3.4170     1.7010     0.7530 h1         1 99T       0.055200
     42 H20         -2.3540     3.2930     2.2760 hc         1 99T       0.032200
     43 H21         -1.4290     4.0020     0.8520 hc         1 99T       0.032200
@<TRIPOS>BOND
     1     1     2 1   
     2     2     3 1   
     3     2     4 1   
     4     4     5 1   
     5     4    26 1   
     6     4    27 1   
     7     5     6 1   
     8     5    28 1   
     9     6     7 2   
    10     6     8 1   
    11     8     9 1   
    12     8    11 1   
    13     8    29 1   
    14     9    10 1   
    15     9    30 1   
    16     9    31 1   
    17    10    21 1   
    18    11    12 1   
    19    11    32 1   
    20    12    13 2   
    21    12    14 1   
    22    14    15 1   
    23    14    33 1   
    24    14    34 1   
    25    15    16 1   
    26    15    35 1   
    27    15    36 1   
    28    16    17 1   
    29    16    18 1   
    30    16    37 1   
    31    17    38 1   
    32    17    39 1   
    33    18    19 1   
    34    18    20 1   
    35    21    22 1   
    36    21    40 1   
    37    21    41 1   
    38    22    23 1   
    39    22    42 1   
    40    22    43 1   
    41    23    24 1   
    42    23    25 1   
@<TRIPOS>SUBSTRUCTURE
     1 99T         1 TEMP              0 ****  ****    0 ROOT
