@<TRIPOS>MOLECULE
99W
   60    61     1     0     0
SMALL
bcc


@<TRIPOS>ATOM
      1 N1          -5.9740   -27.9490    56.9230 ns         1 99W      -0.541900
      2 N3          -5.9010   -24.9720    55.0200 ns         1 99W      -0.565900
      3 C4          -7.9380   -29.1550    55.0070 c3         1 99W      -0.059700
      4 C5          -9.3800   -29.4320    54.5920 c3         1 99W      -0.091100
      5 C6          -6.9660   -29.6400    53.9380 c3         1 99W      -0.091100
      6 C7          -4.7140   -27.9460    57.3700 c          1 99W       0.666100
      7 C8          -4.4760   -28.7080    58.6630 c3         1 99W       0.121800
      8 C10         -6.1220   -31.8630    59.6370 ca         1 99W       0.121900
      9 C13         -5.1330   -32.8410    57.2730 ca         1 99W      -0.192500
     10 C15         -5.7750   -23.5300    55.0740 c3         1 99W       0.047400
     11 C17         -4.3090   -23.0960    54.9700 c3         1 99W      -0.070400
     12 C20         -2.4260   -23.4510    58.2130 c5         1 99W       0.100000
     13 C21         -1.9660   -23.3260    55.9140 c          1 99W       0.708500
     14 O1          -6.8100   -25.2820    57.0740 o          1 99W      -0.599100
     15 C1          -6.3770   -25.7280    56.0240 c          1 99W       0.657100
     16 C2          -6.3770   -27.2320    55.7430 c3         1 99W       0.041700
     17 C3          -7.7780   -27.6620    55.3070 c3         1 99W      -0.085400
     18 N2          -5.5560   -29.5870    59.0520 nu         1 99W      -0.753600
     19 C9          -5.5620   -30.9370    58.7520 ca         1 99W       0.066600
     20 C11         -6.2160   -33.2150    59.3930 ca         1 99W      -0.192500
     21 C12         -5.7070   -33.6850    58.1990 ca         1 99W       0.152900
     22 F2          -5.7770   -34.9960    57.9340 f          1 99W      -0.129900
     23 C14         -5.0820   -31.4920    57.5660 ca         1 99W       0.121900
     24 F3          -4.5440   -30.6770    56.6460 f          1 99W      -0.134900
     25 O2          -3.7990   -27.3470    56.8220 o          1 99W      -0.618100
     26 C16         -6.5710   -22.9090    53.9570 c2         1 99W       0.406200
     27 N4          -7.3290   -21.9220    54.1650 n2         1 99W      -0.729100
     28 C18         -3.4340   -23.7090    56.0490 c5         1 99W      -0.157700
     29 C19         -3.7640   -23.3100    57.4870 c5         1 99W      -0.091400
     30 N5          -1.4760   -23.1750    57.1560 ns         1 99W      -0.580900
     31 O3          -1.3440   -23.1970    54.8730 o          1 99W      -0.637500
     32 H1          -6.6660   -28.4290    57.4790 hn         1 99W       0.342500
     33 H2          -5.5000   -25.4410    54.2210 hn         1 99W       0.315500
     34 H3          -7.7460   -29.7220    55.9250 hc         1 99W       0.047700
     35 H4         -10.0860   -29.1140    55.3610 hc         1 99W       0.036033
     36 H5          -9.6300   -28.9010    53.6700 hc         1 99W       0.036033
     37 H6          -9.5380   -30.4970    54.4140 hc         1 99W       0.036033
     38 H7          -5.9260   -29.5540    54.2520 hc         1 99W       0.036033
     39 H8          -7.1450   -30.6910    53.7030 hc         1 99W       0.036033
     40 H9          -7.0840   -29.0690    53.0140 hc         1 99W       0.036033
     41 H10         -3.5100   -29.2150    58.5970 h1         1 99W       0.075700
     42 H11         -4.3670   -27.9560    59.4470 h1         1 99W       0.075700
     43 H12         -4.7410   -33.2100    56.3340 ha         1 99W       0.174000
     44 H13         -6.1970   -23.1920    56.0200 h1         1 99W       0.107700
     45 H14         -3.9200   -23.3650    53.9840 hc         1 99W       0.061700
     46 H15         -4.2730   -22.0050    55.0370 hc         1 99W       0.061700
     47 H16         -2.2920   -24.4600    58.6130 h1         1 99W       0.044200
     48 H17         -2.3160   -22.7460    59.0370 h1         1 99W       0.044200
     49 H18         -5.6680   -27.4490    54.9390 h1         1 99W       0.073700
     50 H19         -8.0400   -27.0930    54.4100 hc         1 99W       0.057700
     51 H20         -8.4950   -27.3700    56.0820 hc         1 99W       0.057700
     52 H21         -5.9320   -29.3760    59.9610 hn         1 99W       0.428800
     53 H22         -6.6640   -33.8770    60.1220 ha         1 99W       0.174000
     54 H23         -6.4180   -23.3620    52.9720 h4         1 99W      -0.041200
     55 H24         -7.7650   -21.6170    53.2980 hn         1 99W       0.379400
     56 H25         -3.4680   -24.8030    55.9630 hc         1 99W       0.095700
     57 H26         -4.0940   -22.2680    57.5160 hc         1 99W       0.064200
     58 H27         -4.5430   -23.9200    57.9390 hc         1 99W       0.064200
     59 H28         -0.4920   -23.0410    57.3300 hn         1 99W       0.324500
     60 F1          -6.6030   -31.3880    60.7960 f          1 99W      -0.134900
@<TRIPOS>BOND
     1     1     6 1   
     2     1    16 1   
     3     1    32 1   
     4     2    10 1   
     5     2    15 1   
     6     2    33 1   
     7     3     4 1   
     8     3     5 1   
     9     3    17 1   
    10     3    34 1   
    11     4    35 1   
    12     4    36 1   
    13     4    37 1   
    14     5    38 1   
    15     5    39 1   
    16     5    40 1   
    17     6     7 1   
    18     6    25 2   
    19     7    18 1   
    20     7    41 1   
    21     7    42 1   
    22     8    19 ar  
    23     8    20 ar  
    24     8    60 1   
    25     9    21 ar  
    26     9    23 ar  
    27     9    43 1   
    28    10    11 1   
    29    10    26 1   
    30    10    44 1   
    31    11    28 1   
    32    11    45 1   
    33    11    46 1   
    34    12    29 1   
    35    12    30 1   
    36    12    47 1   
    37    12    48 1   
    38    13    28 1   
    39    13    30 1   
    40    13    31 2   
    41    14    15 2   
    42    15    16 1   
    43    16    17 1   
    44    16    49 1   
    45    17    50 1   
    46    17    51 1   
    47    18    19 1   
    48    18    52 1   
    49    19    23 ar  
    50    20    21 ar  
    51    20    53 1   
    52    21    22 1   
    53    23    24 1   
    54    26    27 2   
    55    26    54 1   
    56    27    55 1   
    57    28    29 1   
    58    28    56 1   
    59    29    57 1   
    60    29    58 1   
    61    30    59 1   
@<TRIPOS>SUBSTRUCTURE
     1 99W         1 TEMP              0 ****  ****    0 ROOT
