@<TRIPOS>MOLECULE
99W
   60    61     1     0     0
SMALL
No Charge or Current Charge


@<TRIPOS>ATOM
      1 N1          -5.2170   -28.1200    57.5000 ns         1 99W      -0.474900
      2 N3          -5.9230   -25.1480    55.3700 ns         1 99W      -0.498900
      3 C4          -6.5510   -29.6320    55.1270 c3         1 99W      -0.059700
      4 C5          -7.8750   -30.3010    54.6930 c3         1 99W      -0.091100
      5 C6          -5.4850   -29.7630    54.0140 c3         1 99W      -0.091100
      6 C7          -4.1150   -28.9260    57.6990 c          1 99W       0.599100
      7 C8          -4.0420   -29.5880    59.1130 c3         1 99W       0.121800
      8 C10         -7.6030   -30.8410    58.9070 ca         1 99W       0.157000
      9 C13         -6.5800   -32.9020    57.3030 ca         1 99W      -0.174500
     10 C15         -6.1560   -23.6880    55.3620 c3         1 99W       0.047400
     11 C17         -4.8930   -22.9320    54.8790 c3         1 99W      -0.070400
     12 C20         -2.2040   -22.5730    57.5870 c5         1 99W       0.100000
     13 C21         -2.3790   -22.4120    55.2170 c          1 99W       0.566000
     14 O1          -6.0970   -25.4880    57.6180 o          1 99W      -0.599100
     15 C1          -5.8950   -25.9430    56.4990 c          1 99W       0.590100
     16 C2          -5.5800   -27.4440    56.2340 c3         1 99W       0.041700
     17 C3          -6.7880   -28.1580    55.5610 c3         1 99W      -0.085400
     18 N2          -5.3460   -30.1660    59.5930 nu         1 99W      -0.947200
     19 C9          -6.1980   -31.0300    58.8520 ca         1 99W       0.205000
     20 C11         -8.4760   -31.6600    58.1730 ca         1 99W      -0.174500
     21 C12         -7.9610   -32.6860    57.3720 ca         1 99W       0.188000
     22 F2          -8.8000   -33.4690    56.6630 f          1 99W      -0.165000
     23 C14         -5.7020   -32.0850    58.0360 ca         1 99W       0.157000
     24 F3          -4.3750   -32.3380    57.9470 f          1 99W      -0.170000
     25 O2          -3.2730   -29.1110    56.8290 o          1 99W      -0.618100
     26 C16         -7.3800   -23.3370    54.5230 c2         1 99W       0.406200
     27 N4          -8.4510   -22.8220    55.0150 n2         1 99W      -0.729100
     28 C18         -3.6120   -23.1670    55.7300 c5         1 99W      -0.157700
     29 C19         -3.7050   -22.6980    57.2100 c5         1 99W      -0.091400
     30 N5          -1.6520   -22.0810    56.3270 ns         1 99W      -0.513900
     31 O3          -2.1480   -21.9610    54.1070 o          1 99W      -0.562000
     32 H1          -5.8470   -28.0340    58.2890 hn         1 99W       0.342500
     33 H2          -5.7450   -25.6110    54.4850 hn         1 99W       0.315500
     34 H3          -6.1870   -30.1890    55.9970 hc         1 99W       0.047700
     35 H4          -8.6180   -30.2510    55.4970 hc         1 99W       0.036033
     36 H5          -8.2930   -29.8030    53.8090 hc         1 99W       0.036033
     37 H6          -7.7140   -31.3570    54.4480 hc         1 99W       0.036033
     38 H7          -4.5120   -29.3850    54.3460 hc         1 99W       0.036033
     39 H8          -5.3500   -30.8140    53.7310 hc         1 99W       0.036033
     40 H9          -5.7840   -29.2040    53.1190 hc         1 99W       0.036033
     41 H10         -3.2680   -30.3650    59.0680 h1         1 99W       0.075700
     42 H11         -3.6910   -28.8170    59.8120 h1         1 99W       0.075700
     43 H12         -6.1870   -33.7020    56.6820 ha         1 99W       0.156000
     44 H13         -6.3660   -23.3580    56.3880 h1         1 99W       0.107700
     45 H14         -4.6940   -23.2200    53.8390 hc         1 99W       0.061700
     46 H15         -5.1190   -21.8590    54.8570 hc         1 99W       0.061700
     47 H16         -1.7740   -23.5470    57.8570 h1         1 99W       0.044200
     48 H17         -2.0460   -21.8790    58.4230 h1         1 99W       0.044200
     49 H18         -4.7210   -27.4630    55.5520 h1         1 99W       0.073700
     50 H19         -7.1010   -27.5850    54.6790 hc         1 99W       0.057700
     51 H20         -7.6340   -28.1250    56.2600 hc         1 99W       0.057700
     52 H21         -5.8220   -29.6410    60.3350 hn         1 99W       0.484000
     53 H22         -9.5490   -31.4950    58.2240 ha         1 99W       0.156000
     54 H23         -7.3260   -23.5450    53.4580 h4         1 99W      -0.041200
     55 H24         -9.1350   -22.6790    54.2570 hn         1 99W       0.379400
     56 H25         -3.3520   -24.2320    55.7240 hc         1 99W       0.095700
     57 H26         -4.2050   -21.7250    57.2890 hc         1 99W       0.064200
     58 H27         -4.2430   -23.3990    57.8570 hc         1 99W       0.064200
     59 H28         -0.8300   -21.4980    56.2210 hn         1 99W       0.324500
     60 F1          -8.1270   -29.8480    59.6650 f          1 99W      -0.170000
@<TRIPOS>BOND
     1     1     6 1   
     2     1    16 1   
     3     1    32 1   
     4     2    10 1   
     5     2    15 1   
     6     2    33 1   
     7     3     4 1   
     8     3     5 1   
     9     3    17 1   
    10     3    34 1   
    11     4    35 1   
    12     4    36 1   
    13     4    37 1   
    14     5    38 1   
    15     5    39 1   
    16     5    40 1   
    17     6     7 1   
    18     6    25 2   
    19     7    18 1   
    20     7    41 1   
    21     7    42 1   
    22     8    19 ar  
    23     8    20 ar  
    24     8    60 1   
    25     9    21 ar  
    26     9    23 ar  
    27     9    43 1   
    28    10    11 1   
    29    10    26 1   
    30    10    44 1   
    31    11    28 1   
    32    11    45 1   
    33    11    46 1   
    34    12    29 1   
    35    12    30 1   
    36    12    47 1   
    37    12    48 1   
    38    13    28 1   
    39    13    30 1   
    40    13    31 2   
    41    14    15 2   
    42    15    16 1   
    43    16    17 1   
    44    16    49 1   
    45    17    50 1   
    46    17    51 1   
    47    18    19 1   
    48    18    52 1   
    49    19    23 ar  
    50    20    21 ar  
    51    20    53 1   
    52    21    22 1   
    53    23    24 1   
    54    26    27 2   
    55    26    54 1   
    56    27    55 1   
    57    28    29 1   
    58    28    56 1   
    59    29    57 1   
    60    29    58 1   
    61    30    59 1   
@<TRIPOS>SUBSTRUCTURE
     1 99W         1 TEMP              0 ****  ****    0 ROOT
