@<TRIPOS>MOLECULE
99Y
   24    24     1     0     0
SMALL
bcc


@<TRIPOS>ATOM
      1 C02         -2.5090    -0.0880    -0.4630 c3         1 99Y       0.018500
      2 C03         -1.6770     0.1630     0.8040 c3         1 99Y      -0.010100
      3 C04         -0.1970     0.1290     0.5640 ca         1 99Y      -0.068300
      4 C05          0.4770     1.2770     0.1510 ca         1 99Y      -0.156500
      5 C06          1.8440     1.2600    -0.0870 ca         1 99Y      -0.116000
      6 C07          2.5860     0.0930     0.0790 ca         1 99Y      -0.155600
      7 C08          4.0860     0.0750    -0.1740 c          1 99Y       0.926200
      8 C11          1.9130    -1.0540     0.4920 ca         1 99Y      -0.116000
      9 C12          0.5460    -1.0370     0.7280 ca         1 99Y      -0.156500
     10 C13         -4.0030     0.1850    -0.1500 c          1 99Y       0.899600
     11 N01         -2.2050    -1.4030    -1.0000 n8         1 99Y      -0.865800
     12 O09          4.6670    -1.0180    -0.0280 o          1 99Y      -0.849800
     13 O10          4.6120     1.1560    -0.5080 o          1 99Y      -0.849800
     14 O14         -4.7930    -0.7770    -0.2100 o          1 99Y      -0.854800
     15 O1          -4.2890     1.3630     0.1490 o          1 99Y      -0.854800
     16 H1          -2.1970     0.6540    -1.2090 h1         1 99Y       0.046700
     17 H2          -1.9600     1.1350     1.2110 hc         1 99Y       0.035700
     18 H3          -1.9470    -0.5870     1.5560 hc         1 99Y       0.035700
     19 H4          -0.0780     2.2000     0.0200 ha         1 99Y       0.103500
     20 H5           2.3430     2.1680    -0.4000 ha         1 99Y       0.127000
     21 H6           2.4690    -1.9730     0.6320 ha         1 99Y       0.127000
     22 H7           0.0480    -1.9430     1.0550 ha         1 99Y       0.103500
     23 H8          -2.5330    -2.0990    -0.3390 hn         1 99Y       0.315300
     24 H9          -2.7760    -1.5540    -1.8230 hn         1 99Y       0.315300
@<TRIPOS>BOND
     1     1     2 1   
     2     1    10 1   
     3     1    11 1   
     4     1    16 1   
     5     2     3 1   
     6     2    17 1   
     7     2    18 1   
     8     3     4 ar  
     9     3     9 ar  
    10     4     5 ar  
    11     4    19 1   
    12     5     6 ar  
    13     5    20 1   
    14     6     7 1   
    15     6     8 ar  
    16     7    12 1   
    17     7    13 1   
    18     8     9 ar  
    19     8    21 1   
    20     9    22 1   
    21    10    14 1   
    22    10    15 1   
    23    11    23 1   
    24    11    24 1   
@<TRIPOS>SUBSTRUCTURE
     1 99Y         1 TEMP              0 ****  ****    0 ROOT
