@<TRIPOS>MOLECULE
99Y
   24    24     1     0     0
SMALL
No Charge or Current Charge


@<TRIPOS>ATOM
      1 C02         -2.5480    -0.0060    -0.4310 c3         1 99Y       0.018500
      2 C03         -1.6670    -0.0180     0.8490 c3         1 99Y      -0.010100
      3 C04         -0.1620     0.0110     0.5780 ca         1 99Y      -0.068300
      4 C05          0.4390     1.1590     0.0290 ca         1 99Y      -0.138500
      5 C06          1.8250     1.1990    -0.2040 ca         1 99Y      -0.098000
      6 C07          2.6460     0.0900     0.1110 ca         1 99Y      -0.155600
      7 C08          4.1470     0.1310    -0.1400 c          1 99Y       0.715600
      8 C11          2.0330    -1.0580     0.6690 ca         1 99Y      -0.098000
      9 C12          0.6470    -1.0940     0.9000 ca         1 99Y      -0.138500
     10 C13         -4.0550     0.2880    -0.0430 c          1 99Y       0.689000
     11 N01         -2.3150    -1.2380    -1.2740 n8         1 99Y      -0.976200
     12 O09          4.8190    -0.8490     0.1500 o          1 99Y      -0.744500
     13 O10          4.6340     1.1440    -0.6230 o          1 99Y      -0.744500
     14 O14         -4.7180    -0.6150     0.4520 o          1 99Y      -0.749500
     15 O1          -4.5350     1.3690    -0.3550 o          1 99Y      -0.749500
     16 H1          -2.2230     0.8520    -1.0360 h1         1 99Y       0.046700
     17 H2          -1.9290     0.8580     1.4560 hc         1 99Y       0.035700
     18 H3          -1.9320    -0.8900     1.4600 hc         1 99Y       0.035700
     19 H4          -0.1690     2.0260    -0.2170 ha         1 99Y       0.085500
     20 H5           2.2600     2.1000    -0.6310 ha         1 99Y       0.109000
     21 H6           2.6320    -1.9290     0.9260 ha         1 99Y       0.109000
     22 H7           0.2020    -1.9880     1.3310 ha         1 99Y       0.085500
     23 H8          -2.7170    -2.0440    -0.7810 hn         1 99Y       0.370500
     24 H9          -2.8850    -1.1730    -2.1250 hn         1 99Y       0.370500
@<TRIPOS>BOND
     1     1     2 1   
     2     1    10 1   
     3     1    11 1   
     4     1    16 1   
     5     2     3 1   
     6     2    17 1   
     7     2    18 1   
     8     3     4 ar  
     9     3     9 ar  
    10     4     5 ar  
    11     4    19 1   
    12     5     6 ar  
    13     5    20 1   
    14     6     7 1   
    15     6     8 ar  
    16     7    12 1   
    17     7    13 1   
    18     8     9 ar  
    19     8    21 1   
    20     9    22 1   
    21    10    14 1   
    22    10    15 1   
    23    11    23 1   
    24    11    24 1   
@<TRIPOS>SUBSTRUCTURE
     1 99Y         1 TEMP              0 ****  ****    0 ROOT
