@<TRIPOS>MOLECULE
99Z
   42    44     1     0     0
SMALL
No Charge or Current Charge


@<TRIPOS>ATOM
      1 N01        -95.6030    10.4240   -50.3620 nc         1 99Z      -0.803000
      2 N02        -97.0230    10.6420   -48.6700 nu         1 99Z      -0.922900
      3 N03        -94.0900    10.1020   -51.9100 nv         1 99Z      -1.052900
      4 N04        -99.3940    10.6180   -42.5560 n8         1 99Z      -1.016100
      5 C05        -94.0470     8.7530   -49.9150 cd         1 99Z      -0.475600
      6 C06        -94.5340     9.7110   -50.7390 cc         1 99Z       0.688900
      7 C07        -95.9970     9.9610   -49.2060 cd         1 99Z       0.745300
      8 C08        -97.7980    10.5160   -47.5230 ca         1 99Z       0.357000
      9 C09        -92.8550     7.9340   -50.1800 c          1 99Z       0.643300
     10 C10        -92.4840     6.9290   -49.1280 ca         1 99Z      -0.146600
     11 C11        -91.7590     7.3100   -47.9740 ca         1 99Z      -0.047300
     12 C12        -91.4420     6.3380   -47.0050 ca         1 99Z      -0.118000
     13 C13        -91.8370     5.0010   -47.1790 ca         1 99Z      -0.098000
     14 C14        -92.5510     4.6240   -48.3270 ca         1 99Z      -0.118000
     15 C15        -92.8730     5.5850   -49.2990 ca         1 99Z      -0.074000
     16 C16        -97.9290     9.2980   -46.8330 ca         1 99Z      -0.175500
     17 C17        -98.7300     9.2130   -45.6810 ca         1 99Z       0.027000
     18 C18        -99.4150    10.3530   -45.2170 ca         1 99Z      -0.307500
     19 C19        -99.2960    11.5710   -45.9120 ca         1 99Z       0.027000
     20 C20        -98.4940    11.6430   -47.0630 ca         1 99Z      -0.175500
     21 C21        -91.3110     8.7540   -47.7680 c3         1 99Z      -0.052800
     22 O22        -92.1860     8.0540   -51.1980 o          1 99Z      -0.595100
     23 O23        101.4030    11.3460   -43.7060 o          1 99Z      -0.552500
     24 O24       -100.8090     8.8680   -43.4630 o          1 99Z      -0.552500
     25 S25        -95.0490     8.6620   -48.4750 ss         1 99Z      -0.024400
     26 S26       -100.4370    10.2510   -43.7490 sy         1 99Z       1.162600
     27 HN02       -97.2020    11.4620   -49.2390 hn         1 99Z       0.516000
     28 HN03       -94.3660    11.0410   -52.1660 hn         1 99Z       0.521000
     29 HN0A       -93.1410     9.8220   -52.1320 hn         1 99Z       0.521000
     30 HN04       -99.9150    11.3560   -42.0880 hn         1 99Z       0.477500
     31 HN0B       -99.5480     9.8250   -41.9380 hn         1 99Z       0.477500
     32 H12        -90.8870     6.6160   -46.1120 ha         1 99Z       0.112000
     33 H13        -91.5870     4.2570   -46.4250 ha         1 99Z       0.113000
     34 H14        -92.8560     3.5890   -48.4640 ha         1 99Z       0.116000
     35 H15        -93.4300     5.2890   -50.1860 ha         1 99Z       0.121000
     36 H16        -97.4370     8.4010   -47.1890 ha         1 99Z       0.130500
     37 H17        -98.8190     8.2610   -45.1590 ha         1 99Z       0.141000
     38 H19        -99.8200    12.4620   -45.5670 ha         1 99Z       0.141000
     39 H20        -98.4070    12.5880   -47.5920 ha         1 99Z       0.130500
     40 H21        -92.1690     9.4140   -47.5980 hc         1 99Z       0.047033
     41 H21A       -90.6450     8.8530   -46.9030 hc         1 99Z       0.047033
     42 H21B       -90.7660     9.1280   -48.6420 hc         1 99Z       0.047033
@<TRIPOS>BOND
     1     1     6 1   
     2     1     7 2   
     3     2     7 1   
     4     2     8 1   
     5     2    27 1   
     6     3     6 1   
     7     3    28 1   
     8     3    29 1   
     9     4    26 1   
    10     4    30 1   
    11     4    31 1   
    12     5     6 2   
    13     5     9 1   
    14     5    25 1   
    15     7    25 1   
    16     8    16 ar  
    17     8    20 ar  
    18     9    10 1   
    19     9    22 2   
    20    10    11 ar  
    21    10    15 ar  
    22    11    12 ar  
    23    11    21 1   
    24    12    13 ar  
    25    12    32 1   
    26    13    14 ar  
    27    13    33 1   
    28    14    15 ar  
    29    14    34 1   
    30    15    35 1   
    31    16    17 ar  
    32    16    36 1   
    33    17    18 ar  
    34    17    37 1   
    35    18    19 ar  
    36    18    26 1   
    37    19    20 ar  
    38    19    38 1   
    39    20    39 1   
    40    21    40 1   
    41    21    41 1   
    42    21    42 1   
    43    23    26 2   
    44    24    26 2   
@<TRIPOS>SUBSTRUCTURE
     1 99Z         1 TEMP              0 ****  ****    0 ROOT
