@<TRIPOS>MOLECULE
99Z
   42    44     1     0     0
SMALL
abcg2


@<TRIPOS>ATOM
      1 N01        -95.5740    10.5280   -50.5660 nc         1 99Z      -0.803000
      2 N02        -97.1830    10.6990   -48.9180 nu         1 99Z      -0.922900
      3 N03        -93.7720    10.1400   -52.0040 nv         1 99Z      -1.052900
      4 N04        -98.8270    10.6170   -42.6660 n8         1 99Z      -1.016100
      5 C05        -94.0540     8.8430   -49.9770 cd         1 99Z      -0.475600
      6 C06        -94.4420     9.8450   -50.8860 cc         1 99Z       0.688900
      7 C07        -96.0880    10.0910   -49.4330 cd         1 99Z       0.745300
      8 C08        -97.8400    10.4820   -47.7070 ca         1 99Z       0.357000
      9 C09        -92.9130     8.0110   -50.0700 c          1 99Z       0.643300
     10 C10        -92.6710     7.0210   -48.9650 ca         1 99Z      -0.146600
     11 C11        -92.1760     7.4290   -47.7170 ca         1 99Z      -0.047300
     12 C12        -91.9660     6.4520   -46.7420 ca         1 99Z      -0.118000
     13 C13        -92.2430     5.1120   -46.9870 ca         1 99Z      -0.098000
     14 C14        -92.7280     4.7180   -48.2300 ca         1 99Z      -0.118000
     15 C15        -92.9360     5.6750   -49.2150 ca         1 99Z      -0.074000
     16 C16        -97.8800     9.2390   -47.0720 ca         1 99Z      -0.175500
     17 C17        -98.5350     9.1030   -45.8560 ca         1 99Z       0.027000
     18 C18        -99.1600    10.2010   -45.2790 ca         1 99Z      -0.307500
     19 C19        -99.1570    11.4380   -45.9230 ca         1 99Z       0.027000
     20 C20        -98.5040    11.5750   -47.1310 ca         1 99Z      -0.175500
     21 C21        -91.8590     8.8720   -47.4210 c3         1 99Z      -0.052800
     22 O22        -92.1250     8.0670   -51.0360 o          1 99Z      -0.595100
     23 O23       -101.0640    10.9720   -43.6420 o          1 99Z      -0.552500
     24 O24       -100.2260     8.6350   -43.4970 o          1 99Z      -0.552500
     25 S25        -95.2340     8.7780   -48.6740 ss         1 99Z      -0.024400
     26 S26        -99.9610    10.0410   -43.7150 sy         1 99Z       1.162600
     27 HN02       -97.4420    11.5400   -49.4200 hn         1 99Z       0.516000
     28 HN03       -94.0700    10.9000   -52.5900 hn         1 99Z       0.521000
     29 HN0A       -92.9240     9.6270   -52.1960 hn         1 99Z       0.521000
     30 HN04       -99.2680    11.0010   -41.8350 hn         1 99Z       0.477500
     31 HN0B       -98.1270     9.9200   -42.4290 hn         1 99Z       0.477500
     32 H12        -91.5730     6.7500   -45.7780 ha         1 99Z       0.112000
     33 H13        -92.0730     4.3760   -46.2110 ha         1 99Z       0.113000
     34 H14        -92.9410     3.6760   -48.4310 ha         1 99Z       0.116000
     35 H15        -93.3120     5.3810   -50.1880 ha         1 99Z       0.121000
     36 H16        -97.4420     8.3640   -47.5290 ha         1 99Z       0.130500
     37 H17        -98.5680     8.1390   -45.3680 ha         1 99Z       0.141000
     38 H19        -99.6570    12.2870   -45.4770 ha         1 99Z       0.141000
     39 H20        -98.4880    12.5330   -47.6340 ha         1 99Z       0.130500
     40 H21        -92.7670     9.4400   -47.2010 hc         1 99Z       0.047033
     41 H21A       -91.2020     8.9480   -46.5550 hc         1 99Z       0.047033
     42 H21B       -91.3710     9.3580   -48.2670 hc         1 99Z       0.047033
@<TRIPOS>BOND
     1     1     6 1   
     2     1     7 2   
     3     2     7 1   
     4     2     8 1   
     5     2    27 1   
     6     3     6 1   
     7     3    28 1   
     8     3    29 1   
     9     4    26 1   
    10     4    30 1   
    11     4    31 1   
    12     5     6 2   
    13     5     9 1   
    14     5    25 1   
    15     7    25 1   
    16     8    16 ar  
    17     8    20 ar  
    18     9    10 1   
    19     9    22 2   
    20    10    11 ar  
    21    10    15 ar  
    22    11    12 ar  
    23    11    21 1   
    24    12    13 ar  
    25    12    32 1   
    26    13    14 ar  
    27    13    33 1   
    28    14    15 ar  
    29    14    34 1   
    30    15    35 1   
    31    16    17 ar  
    32    16    36 1   
    33    17    18 ar  
    34    17    37 1   
    35    18    19 ar  
    36    18    26 1   
    37    19    20 ar  
    38    19    38 1   
    39    20    39 1   
    40    21    40 1   
    41    21    41 1   
    42    21    42 1   
    43    23    26 2   
    44    24    26 2   
@<TRIPOS>SUBSTRUCTURE
     1 99Z         1 TEMP              0 ****  ****    0 ROOT
