@<TRIPOS>MOLECULE
9A0
   61    63     1     0     0
SMALL
No Charge or Current Charge


@<TRIPOS>ATOM
      1 C10          3.0240     3.1660    -0.7850 c3         1 9A0      -0.125100
      2 C11          1.8780     2.9620     0.2120 c          1 9A0       0.609100
      3 C14         -0.5780     2.1900     0.1810 ca         1 9A0      -0.019000
      4 C15         -0.9020     2.3230     1.5470 ca         1 9A0      -0.146500
      5 O24         -4.1920    -1.2720     1.5360 o          1 9A0      -0.574100
      6 C23         -4.8920    -0.3450     1.1390 c          1 9A0       0.609100
      7 N25         -5.9700    -0.5240     0.2750 ns         1 9A0      -0.147000
      8 C26         -6.5080    -1.6730    -0.3680 ca         1 9A0      -0.020000
      9 C31         -7.7210    -1.5170    -1.0650 ca         1 9A0      -0.151000
     10 C30         -8.3130    -2.6050    -1.7290 ca         1 9A0      -0.083500
     11 C29         -7.6910    -3.8630    -1.7060 ca         1 9A0      -0.138000
     12 C28         -6.4770    -4.0300    -1.0210 ca         1 9A0      -0.083500
     13 C27         -5.8860    -2.9420    -0.3550 ca         1 9A0      -0.151000
     14 C21         -5.6040     2.1640     0.9720 c3         1 9A0      -0.089600
     15 C22         -4.7940     1.1810     3.1380 c3         1 9A0      -0.089600
     16 C17         -3.1810     1.5100     1.1300 ca         1 9A0      -0.093300
     17 C16         -2.1850     1.9880     2.0150 ca         1 9A0      -0.070500
     18 C18         -2.8460     1.3850    -0.2360 ca         1 9A0      -0.070500
     19 C19         -1.5640     1.7200    -0.7010 ca         1 9A0      -0.146500
     20 N13          0.6970     2.5090    -0.3640 ns         1 9A0      -0.145000
     21 O12          2.0290     3.1770     1.4100 o          1 9A0      -0.570100
     22 C09          3.9930     1.9910    -0.7310 ca         1 9A0      -0.021300
     23 C08          3.8040     0.8740    -1.5680 ca         1 9A0      -0.112000
     24 C07          4.6930    -0.2140    -1.5170 ca         1 9A0      -0.015000
     25 C32          5.0810     2.0070     0.1620 ca         1 9A0      -0.112000
     26 C33          5.9740     0.9230     0.2180 ca         1 9A0      -0.015000
     27 C06          5.7840    -0.1920    -0.6240 ca         1 9A0      -0.263500
     28 S03          6.9200    -1.5920    -0.5460 sy         1 9A0       1.039500
     29 O04          6.8580    -2.3220    -1.8200 o          1 9A0      -0.522500
     30 O05          8.2020    -1.1300     0.0040 o          1 9A0      -0.522500
     31 C02          6.1660    -2.6590     0.7070 c3         1 9A0      -0.291400
     32 C01          6.9640    -3.9590     0.9680 c3         1 9A0      -0.071100
     33 H1           2.6220     3.2510    -1.8020 hc         1 9A0       0.070700
     34 H2           3.5540     4.0900    -0.5280 hc         1 9A0       0.070700
     35 H3          -0.1770     2.6850     2.2670 ha         1 9A0       0.128500
     36 H4          -6.4670     0.3290     0.0560 hn         1 9A0       0.152000
     37 H5          -8.2140    -0.5470    -1.0910 ha         1 9A0       0.127000
     38 H6          -9.2520    -2.4730    -2.2620 ha         1 9A0       0.112500
     39 H7          -8.1470    -4.7060    -2.2200 ha         1 9A0       0.115000
     40 H8          -5.9920    -5.0040    -1.0060 ha         1 9A0       0.112500
     41 H9          -4.9420    -3.1060     0.1550 ha         1 9A0       0.127000
     42 H10         -6.6370     1.9630     1.2840 hc         1 9A0       0.045533
     43 H11         -5.3510     3.1800     1.2990 hc         1 9A0       0.045533
     44 H12         -5.5700     2.1560    -0.1250 hc         1 9A0       0.045533
     45 H13         -4.0790     0.5210     3.6460 hc         1 9A0       0.045533
     46 H14         -4.6580     2.1990     3.5240 hc         1 9A0       0.045533
     47 H15         -5.8030     0.8540     3.4190 hc         1 9A0       0.045533
     48 H16         -2.3830     2.1120     3.0750 ha         1 9A0       0.115000
     49 H17         -3.5830     1.0250    -0.9510 ha         1 9A0       0.115000
     50 H18         -1.3390     1.6110    -1.7600 ha         1 9A0       0.128500
     51 H19          0.7530     2.3770    -1.3660 hn         1 9A0       0.149000
     52 H20          2.9660     0.8450    -2.2610 ha         1 9A0       0.121000
     53 H21          4.5270    -1.0690    -2.1710 ha         1 9A0       0.139000
     54 H22          5.2360     2.8600     0.8180 ha         1 9A0       0.121000
     55 H23          6.8070     0.9540     0.9190 ha         1 9A0       0.139000
     56 H24          6.0920    -2.0660     1.6260 h1         1 9A0       0.095700
     57 H25          5.1550    -2.8960     0.3550 h1         1 9A0       0.095700
     58 H26          7.0430    -4.5610     0.0540 hc         1 9A0       0.053700
     59 H27          7.9780    -3.7330     1.3220 hc         1 9A0       0.053700
     60 H28          6.4650    -4.5660     1.7320 hc         1 9A0       0.053700
     61 C20         -4.6110     1.1310     1.5920 c3         1 9A0      -0.067700
@<TRIPOS>BOND
     1     1     2 1   
     2     1    22 1   
     3     1    33 1   
     4     1    34 1   
     5     2    20 1   
     6     2    21 2   
     7     3     4 ar  
     8     3    19 ar  
     9     3    20 1   
    10     4    17 ar  
    11     4    35 1   
    12     5     6 2   
    13     6     7 1   
    14     6    61 1   
    15     7     8 1   
    16     7    36 1   
    17     8     9 ar  
    18     8    13 ar  
    19     9    10 ar  
    20     9    37 1   
    21    10    11 ar  
    22    10    38 1   
    23    11    12 ar  
    24    11    39 1   
    25    12    13 ar  
    26    12    40 1   
    27    13    41 1   
    28    14    42 1   
    29    14    43 1   
    30    14    44 1   
    31    14    61 1   
    32    15    45 1   
    33    15    46 1   
    34    15    47 1   
    35    15    61 1   
    36    16    17 ar  
    37    16    18 ar  
    38    16    61 1   
    39    17    48 1   
    40    18    19 ar  
    41    18    49 1   
    42    19    50 1   
    43    20    51 1   
    44    22    23 ar  
    45    22    25 ar  
    46    23    24 ar  
    47    23    52 1   
    48    24    27 ar  
    49    24    53 1   
    50    25    26 ar  
    51    25    54 1   
    52    26    27 ar  
    53    26    55 1   
    54    27    28 1   
    55    28    29 2   
    56    28    30 2   
    57    28    31 1   
    58    31    32 1   
    59    31    56 1   
    60    31    57 1   
    61    32    58 1   
    62    32    59 1   
    63    32    60 1   
@<TRIPOS>SUBSTRUCTURE
     1 9A0         1 TEMP              0 ****  ****    0 ROOT
