@<TRIPOS>MOLECULE
9A0
   61    63     1     0     0
SMALL
bcc


@<TRIPOS>ATOM
      1 C10          2.7310     2.1560    -1.1670 c3         1 9A0      -0.125100
      2 C11          1.6590     1.8110    -0.1440 c          1 9A0       0.676100
      3 C14         -0.8170     1.5720    -0.0140 ca         1 9A0       0.073600
      4 C15         -0.9730     1.3770     1.3550 ca         1 9A0      -0.164500
      5 O24         -4.7270    -1.3790     1.1770 o          1 9A0      -0.574100
      6 C23         -5.3150    -0.3280     0.9980 c          1 9A0       0.676100
      7 N25         -6.4380    -0.2130     0.2510 ns         1 9A0      -0.473100
      8 C26         -7.1540    -1.1970    -0.4420 ca         1 9A0       0.072600
      9 C31         -8.3260    -0.7780    -1.0770 ca         1 9A0      -0.169000
     10 C30         -9.1020    -1.6730    -1.7920 ca         1 9A0      -0.101500
     11 C29         -8.7250    -3.0070    -1.8890 ca         1 9A0      -0.156000
     12 C28         -7.5620    -3.4230    -1.2590 ca         1 9A0      -0.101500
     13 C27         -6.7720    -2.5360    -0.5380 ca         1 9A0      -0.169000
     14 C21         -5.6180     2.2230     1.3460 c3         1 9A0      -0.089600
     15 C22         -4.8120     0.7340     3.1570 c3         1 9A0      -0.089600
     16 C17         -3.3820     1.1660     1.0920 ca         1 9A0      -0.093300
     17 C16         -2.2440     1.1770     1.8850 ca         1 9A0      -0.088500
     18 C18         -3.2070     1.3610    -0.2790 ca         1 9A0      -0.088500
     19 C19         -1.9550     1.5580    -0.8250 ca         1 9A0      -0.164500
     20 N13          0.4070     1.7860    -0.6580 ns         1 9A0      -0.471100
     21 O12          1.9300     1.6090     1.0250 o          1 9A0      -0.570100
     22 C09          3.9940     1.3840    -0.9250 ca         1 9A0      -0.021300
     23 C08          4.2170     0.1840    -1.5950 ca         1 9A0      -0.130000
     24 C07          5.3770    -0.5430    -1.3820 ca         1 9A0      -0.033000
     25 C32          4.9500     1.8450    -0.0250 ca         1 9A0      -0.130000
     26 C33          6.1160     1.1320     0.1990 ca         1 9A0      -0.033000
     27 C06          6.3180    -0.0600    -0.4840 ca         1 9A0      -0.263500
     28 S03          7.8100    -0.9780    -0.2160 sy         1 9A0       1.070300
     29 O04          8.0860    -1.7660    -1.4170 o          1 9A0      -0.593300
     30 O05          8.8400    -0.0560     0.2640 o          1 9A0      -0.593300
     31 C02          7.3960    -2.1060     1.1130 c3         1 9A0      -0.180600
     32 C01          8.5720    -3.0120     1.4320 c3         1 9A0      -0.071100
     33 H1           2.3760     1.9900    -2.1850 hc         1 9A0       0.070700
     34 H2           2.9230     3.2280    -1.0720 hc         1 9A0       0.070700
     35 H3          -0.1250     1.3750     2.0190 ha         1 9A0       0.146500
     36 H4          -6.8380     0.7100     0.1820 hn         1 9A0       0.318500
     37 H5          -8.6310     0.2600    -1.0100 ha         1 9A0       0.145000
     38 H6         -10.0060    -1.3240    -2.2740 ha         1 9A0       0.130500
     39 H7          -9.3290    -3.7090    -2.4480 ha         1 9A0       0.133000
     40 H8          -7.2530    -4.4580    -1.3250 ha         1 9A0       0.130500
     41 H9          -5.8730    -2.8920    -0.0640 ha         1 9A0       0.145000
     42 H10         -6.6360     2.1390     1.7350 hc         1 9A0       0.045533
     43 H11         -5.1590     3.0790     1.8380 hc         1 9A0       0.045533
     44 H12         -5.6700     2.4610     0.2820 hc         1 9A0       0.045533
     45 H13         -4.2170    -0.1270     3.4560 hc         1 9A0       0.045533
     46 H14         -4.4360     1.6110     3.6850 hc         1 9A0       0.045533
     47 H15         -5.8370     0.5670     3.4910 hc         1 9A0       0.045533
     48 H16         -2.3220     1.0260     2.9530 ha         1 9A0       0.133000
     49 H17         -4.0610     1.3550    -0.9480 ha         1 9A0       0.133000
     50 H18         -1.8560     1.7000    -1.8940 ha         1 9A0       0.146500
     51 H19          0.3340     1.9400    -1.6520 hn         1 9A0       0.315500
     52 H20          3.4830    -0.1850    -2.3000 ha         1 9A0       0.139000
     53 H21          5.5390    -1.4680    -1.9190 ha         1 9A0       0.157000
     54 H22          4.7950     2.7830     0.4930 ha         1 9A0       0.139000
     55 H23          6.8550     1.5110     0.8910 ha         1 9A0       0.157000
     56 H24          7.1090    -1.4930     1.9690 h1         1 9A0       0.095700
     57 H25          6.5220    -2.6720     0.7870 h1         1 9A0       0.095700
     58 H26          8.8480    -3.6280     0.5780 hc         1 9A0       0.053700
     59 H27          9.4430    -2.4430     1.7530 hc         1 9A0       0.053700
     60 H28          8.2920    -3.6780     2.2470 hc         1 9A0       0.053700
     61 C20         -4.7880     0.9670     1.6430 c3         1 9A0      -0.067700
@<TRIPOS>BOND
     1     1     2 1   
     2     1    22 1   
     3     1    33 1   
     4     1    34 1   
     5     2    20 1   
     6     2    21 2   
     7     3     4 ar  
     8     3    19 ar  
     9     3    20 1   
    10     4    17 ar  
    11     4    35 1   
    12     5     6 2   
    13     6     7 1   
    14     6    61 1   
    15     7     8 1   
    16     7    36 1   
    17     8     9 ar  
    18     8    13 ar  
    19     9    10 ar  
    20     9    37 1   
    21    10    11 ar  
    22    10    38 1   
    23    11    12 ar  
    24    11    39 1   
    25    12    13 ar  
    26    12    40 1   
    27    13    41 1   
    28    14    42 1   
    29    14    43 1   
    30    14    44 1   
    31    14    61 1   
    32    15    45 1   
    33    15    46 1   
    34    15    47 1   
    35    15    61 1   
    36    16    17 ar  
    37    16    18 ar  
    38    16    61 1   
    39    17    48 1   
    40    18    19 ar  
    41    18    49 1   
    42    19    50 1   
    43    20    51 1   
    44    22    23 ar  
    45    22    25 ar  
    46    23    24 ar  
    47    23    52 1   
    48    24    27 ar  
    49    24    53 1   
    50    25    26 ar  
    51    25    54 1   
    52    26    27 ar  
    53    26    55 1   
    54    27    28 1   
    55    28    29 2   
    56    28    30 2   
    57    28    31 1   
    58    31    32 1   
    59    31    56 1   
    60    31    57 1   
    61    32    58 1   
    62    32    59 1   
    63    32    60 1   
@<TRIPOS>SUBSTRUCTURE
     1 9A0         1 TEMP              0 ****  ****    0 ROOT
