@<TRIPOS>MOLECULE
9A2
   73    76     1     0     0
SMALL
bcc


@<TRIPOS>ATOM
      1 C10        147.0690    44.4830    29.1240 c3         1 9A2      -0.073400
      2 C2         144.0790    41.5190    25.6460 c          1 9A2       0.797100
      3 C4         146.4180    40.6150    25.3370 c6         1 9A2       0.102000
      4 C6         147.7710    41.9340    26.9930 c          1 9A2       0.716500
      5 C9         146.3800    43.3000    29.8060 c3         1 9A2      -0.056700
      6 N3         145.2550    40.9740    26.1220 n          1 9A2      -0.498800
      7 O1         143.1960    41.8800    26.4150 o          1 9A2      -0.629100
      8 F42        140.0370    39.0930    21.7410 f          1 9A2      -0.238967
      9 C38        139.5250    39.9690    22.6220 c3         1 9A2       0.663900
     10 F40        139.2420    39.2680    23.7320 f          1 9A2      -0.238967
     11 F41        138.3480    40.3750    22.1180 f          1 9A2      -0.238967
     12 C37        140.4450    41.1290    22.8870 c3         1 9A2      -0.147400
     13 C36        141.7760    40.7280    23.5130 c3         1 9A2      -0.106400
     14 C35        142.6720    41.9500    23.6970 c3         1 9A2       0.111000
     15 N34        143.9440    41.6280    24.3040 ns         1 9A2      -0.576900
     16 C17        145.5010    41.0340    27.5310 c6         1 9A2       0.267100
     17 N7         146.7390    41.7390    27.8560 n          1 9A2      -0.490800
     18 C5         147.4920    41.6660    25.5340 c6         1 9A2      -0.187400
     19 C18        145.5550    39.6470    28.1480 c6         1 9A2       0.079000
     20 N19        145.8880    39.7190    29.5570 n          1 9A2      -0.469800
     21 C31        146.4480    40.7940    30.1430 c          1 9A2       0.696500
     22 O32        146.6290    40.8610    31.3530 o          1 9A2      -0.643500
     23 C8         146.9340    41.9560    29.2800 c6         1 9A2       0.030700
     24 C46        144.8600    43.4170    29.7340 c3         1 9A2      -0.093100
     25 C11        146.7710    45.8220    29.7880 c3         1 9A2      -0.088100
     26 C20        145.5230    38.5580    30.3830 c3         1 9A2       0.153000
     27 C51        144.0650    38.6510    30.8110 c3         1 9A2      -0.106100
     28 C21        145.9000    37.2840    29.6540 ca         1 9A2      -0.088300
     29 C30        144.9450    36.4280    29.1720 ca         1 9A2      -0.118000
     30 C29        145.2850    35.2690    28.4450 ca         1 9A2      -0.132000
     31 C28        146.5940    34.9810    28.1880 ca         1 9A2      -0.111000
     32 C27        147.6190    35.8290    28.6700 ca         1 9A2      -0.043000
     33 C22        147.2790    36.9840    29.4260 ca         1 9A2      -0.023000
     34 C26        148.9780    35.5370    28.4110 ca         1 9A2      -0.121000
     35 C25        149.9730    36.3470    28.8840 ca         1 9A2      -0.123000
     36 C24        149.6440    37.4790    29.6550 ca         1 9A2      -0.122000
     37 C23        148.3370    37.7870    29.9200 ca         1 9A2      -0.118000
     38 H1         146.7730    44.5270    28.0710 hc         1 9A2       0.046200
     39 H2         148.1480    44.3210    29.1360 hc         1 9A2       0.046200
     40 H3         146.1850    40.4880    24.2840 h1         1 9A2       0.056200
     41 H4         146.7850    39.6400    25.6630 h1         1 9A2       0.056200
     42 H5         146.6680    43.3260    30.8610 hc         1 9A2       0.072700
     43 H6         140.6120    41.6450    21.9380 hc         1 9A2       0.080200
     44 H7         139.9210    41.8310    23.5400 hc         1 9A2       0.080200
     45 H8         141.6120    40.2570    24.4840 hc         1 9A2       0.063200
     46 H9         142.2930    40.0020    22.8810 hc         1 9A2       0.063200
     47 H10        142.8790    42.4080    22.7290 h1         1 9A2       0.062700
     48 H11        142.1670    42.7040    24.3010 h1         1 9A2       0.062700
     49 H12        144.6410    41.2580    23.6830 hn         1 9A2       0.311500
     50 H13        144.6750    41.5720    27.9870 h2         1 9A2       0.113700
     51 H14        148.4260    41.3660    25.0590 hc         1 9A2       0.082200
     52 H15        147.1820    42.6080    25.0700 hc         1 9A2       0.082200
     53 H16        144.5670    39.1960    28.0360 h1         1 9A2       0.060200
     54 H17        146.2690    39.0070    27.6230 h1         1 9A2       0.060200
     55 H18        148.0140    41.9760    29.4490 h1         1 9A2       0.105700
     56 H19        144.3530    42.5470    30.1550 hc         1 9A2       0.038367
     57 H20        144.5160    44.2820    30.3000 hc         1 9A2       0.038367
     58 H21        144.5110    43.5480    28.7080 hc         1 9A2       0.038367
     59 H22        147.3620    46.6170    29.3310 hc         1 9A2       0.031700
     60 H23        145.7230    46.1090    29.7000 hc         1 9A2       0.031700
     61 H24        147.0200    45.7990    30.8510 hc         1 9A2       0.031700
     62 H25        146.1280    38.6170    31.2880 h1         1 9A2       0.092700
     63 H26        143.7900    37.8030    31.4380 hc         1 9A2       0.046700
     64 H27        143.9150    39.5600    31.3920 hc         1 9A2       0.046700
     65 H28        143.3810    38.6790    29.9620 hc         1 9A2       0.046700
     66 H29        143.8960    36.6370    29.3350 ha         1 9A2       0.133000
     67 H30        144.4990    34.6190    28.0840 ha         1 9A2       0.133000
     68 H31        146.8650    34.1010    27.6170 ha         1 9A2       0.132000
     69 H32        149.2180    34.6560    27.8280 ha         1 9A2       0.130000
     70 H33        151.0100    36.1170    28.6790 ha         1 9A2       0.133000
     71 H34        150.4330    38.1080    30.0460 ha         1 9A2       0.136000
     72 H35        148.1280    38.6500    30.5370 ha         1 9A2       0.144000
     73 O33        148.8610    42.3460    27.3560 o          1 9A2      -0.628500
@<TRIPOS>BOND
     1     1     5 1   
     2     1    25 1   
     3     1    38 1   
     4     1    39 1   
     5     2     6 1   
     6     2     7 2   
     7     2    15 1   
     8     3     6 1   
     9     3    18 1   
    10     3    40 1   
    11     3    41 1   
    12     4    17 1   
    13     4    18 1   
    14     4    73 2   
    15     5    23 1   
    16     5    24 1   
    17     5    42 1   
    18     6    16 1   
    19     8     9 1   
    20     9    10 1   
    21     9    11 1   
    22     9    12 1   
    23    12    13 1   
    24    12    43 1   
    25    12    44 1   
    26    13    14 1   
    27    13    45 1   
    28    13    46 1   
    29    14    15 1   
    30    14    47 1   
    31    14    48 1   
    32    15    49 1   
    33    16    17 1   
    34    16    19 1   
    35    16    50 1   
    36    17    23 1   
    37    18    51 1   
    38    18    52 1   
    39    19    20 1   
    40    19    53 1   
    41    19    54 1   
    42    20    21 1   
    43    20    26 1   
    44    21    22 2   
    45    21    23 1   
    46    23    55 1   
    47    24    56 1   
    48    24    57 1   
    49    24    58 1   
    50    25    59 1   
    51    25    60 1   
    52    25    61 1   
    53    26    27 1   
    54    26    28 1   
    55    26    62 1   
    56    27    63 1   
    57    27    64 1   
    58    27    65 1   
    59    28    29 ar  
    60    28    33 ar  
    61    29    30 ar  
    62    29    66 1   
    63    30    31 ar  
    64    30    67 1   
    65    31    32 ar  
    66    31    68 1   
    67    32    33 ar  
    68    32    34 ar  
    69    33    37 ar  
    70    34    35 ar  
    71    34    69 1   
    72    35    36 ar  
    73    35    70 1   
    74    36    37 ar  
    75    36    71 1   
    76    37    72 1   
@<TRIPOS>SUBSTRUCTURE
     1 9A2         1 TEMP              0 ****  ****    0 ROOT
