@<TRIPOS>MOLECULE
9A2
   73    76     1     0     0
SMALL
No Charge or Current Charge


@<TRIPOS>ATOM
      1 C10        147.1090    44.5770    29.1440 c3         1 9A2      -0.073400
      2 C2         143.9360    41.4920    25.5690 c          1 9A2       0.663100
      3 C4         146.3420    40.7190    25.1690 c6         1 9A2       0.102000
      4 C6         147.7310    41.9960    26.8560 c          1 9A2       0.574000
      5 C9         146.3910    43.3720    29.8160 c3         1 9A2      -0.056700
      6 N3         145.1780    41.0210    26.0330 n          1 9A2      -0.431800
      7 O1         143.0320    41.7890    26.3320 o          1 9A2      -0.629100
      8 F42        139.6260    39.1450    21.9270 f          1 9A2      -0.117667
      9 C38        139.1570    40.2200    22.6010 c3         1 9A2       0.300000
     10 F40        138.7610    39.8070    23.8260 f          1 9A2      -0.117667
     11 F41        138.0670    40.6780    21.9450 f          1 9A2      -0.117667
     12 C37        140.2310    41.3260    22.7050 c3         1 9A2      -0.147400
     13 C36        141.5260    40.8980    23.4430 c3         1 9A2      -0.106400
     14 C35        142.5710    42.0300    23.5250 c3         1 9A2       0.111000
     15 N34        143.7930    41.5980    24.2070 ns         1 9A2      -0.509900
     16 C17        145.4940    41.0180    27.4780 c6         1 9A2       0.267100
     17 N7         146.6890    41.8270    27.7930 n          1 9A2      -0.423800
     18 C5         147.3960    41.8110    25.3770 c6         1 9A2      -0.187400
     19 C18        145.6300    39.6060    28.0810 c6         1 9A2       0.079000
     20 N19        145.9240    39.6430    29.5410 n          1 9A2      -0.402800
     21 C31        146.4430    40.8040    30.1690 c          1 9A2       0.554000
     22 O32        146.5530    40.8630    31.3880 o          1 9A2      -0.568000
     23 C8         146.9160    41.9970    29.2680 c6         1 9A2       0.030700
     24 C46        144.8470    43.5090    29.7480 c3         1 9A2      -0.093100
     25 C11        146.8180    45.9500    29.7880 c3         1 9A2      -0.088100
     26 C20        145.5880    38.4370    30.3400 c3         1 9A2       0.153000
     27 C51        144.0950    38.4530    30.7420 c3         1 9A2      -0.106100
     28 C21        146.0640    37.1400    29.6450 ca         1 9A2      -0.088300
     29 C30        145.1310    36.2760    29.0190 ca         1 9A2      -0.100000
     30 C29        145.5480    35.1050    28.3720 ca         1 9A2      -0.114000
     31 C28        146.9060    34.7710    28.3280 ca         1 9A2      -0.093000
     32 C27        147.8560    35.6140    28.9280 ca         1 9A2      -0.043000
     33 C22        147.4490    36.8020    29.5870 ca         1 9A2      -0.023000
     34 C26        149.2190    35.2630    28.8600 ca         1 9A2      -0.103000
     35 C25        150.1920    36.0880    29.4420 ca         1 9A2      -0.105000
     36 C24        149.8060    37.2670    30.0940 ca         1 9A2      -0.104000
     37 C23        148.4480    37.6230    30.1670 ca         1 9A2      -0.100000
     38 H1         146.8390    44.6220    28.0820 hc         1 9A2       0.046200
     39 H2         148.1930    44.4080    29.1830 hc         1 9A2       0.046200
     40 H3         146.0720    40.6540    24.1070 h1         1 9A2       0.056200
     41 H4         146.7640    39.7430    25.4470 h1         1 9A2       0.056200
     42 H5         146.6570    43.4200    30.8800 hc         1 9A2       0.072700
     43 H6         140.4870    41.6600    21.6910 hc         1 9A2       0.080200
     44 H7         139.7930    42.1910    23.2180 hc         1 9A2       0.080200
     45 H8         141.2740    40.5680    24.4580 hc         1 9A2       0.063200
     46 H9         141.9740    40.0390    22.9290 hc         1 9A2       0.063200
     47 H10        142.8350    42.3600    22.5120 h1         1 9A2       0.062700
     48 H11        142.1460    42.8900    24.0590 h1         1 9A2       0.062700
     49 H12        144.5910    41.3380    23.6440 hn         1 9A2       0.311500
     50 H13        144.6510    41.4930    27.9980 h2         1 9A2       0.113700
     51 H14        148.3100    41.6550    24.7900 hc         1 9A2       0.082200
     52 H15        146.9390    42.7530    25.0490 hc         1 9A2       0.082200
     53 H16        144.6990    39.0510    27.9010 h1         1 9A2       0.060200
     54 H17        146.4410    39.0660    27.5750 h1         1 9A2       0.060200
     55 H18        148.0010    41.9930    29.4430 h1         1 9A2       0.105700
     56 H19        144.3520    42.6230    30.1640 hc         1 9A2       0.038367
     57 H20        144.5030    44.3740    30.3260 hc         1 9A2       0.038367
     58 H21        144.5090    43.6380    28.7120 hc         1 9A2       0.038367
     59 H22        147.4410    46.7240    29.3240 hc         1 9A2       0.031700
     60 H23        145.7700    46.2390    29.6520 hc         1 9A2       0.031700
     61 H24        147.0400    45.9320    30.8610 hc         1 9A2       0.031700
     62 H25        146.1320    38.4810    31.2920 h1         1 9A2       0.092700
     63 H26        143.8410    37.5580    31.3230 hc         1 9A2       0.046700
     64 H27        143.8830    39.3290    31.3660 hc         1 9A2       0.046700
     65 H28        143.4390    38.5040    29.8660 hc         1 9A2       0.046700
     66 H29        144.0690    36.5010    29.0170 ha         1 9A2       0.115000
     67 H30        144.8150    34.4550    27.8990 ha         1 9A2       0.115000
     68 H31        147.2190    33.8610    27.8210 ha         1 9A2       0.114000
     69 H32        149.5260    34.3500    28.3540 ha         1 9A2       0.112000
     70 H33        151.2430    35.8140    29.3870 ha         1 9A2       0.115000
     71 H34        150.5600    37.9090    30.5440 ha         1 9A2       0.118000
     72 H35        148.2000    38.5460    30.6800 ha         1 9A2       0.126000
     73 O33        148.8680    42.2860    27.1980 o          1 9A2      -0.553000
@<TRIPOS>BOND
     1     1     5 1   
     2     1    25 1   
     3     1    38 1   
     4     1    39 1   
     5     2     6 1   
     6     2     7 2   
     7     2    15 1   
     8     3     6 1   
     9     3    18 1   
    10     3    40 1   
    11     3    41 1   
    12     4    17 1   
    13     4    18 1   
    14     4    73 2   
    15     5    23 1   
    16     5    24 1   
    17     5    42 1   
    18     6    16 1   
    19     8     9 1   
    20     9    10 1   
    21     9    11 1   
    22     9    12 1   
    23    12    13 1   
    24    12    43 1   
    25    12    44 1   
    26    13    14 1   
    27    13    45 1   
    28    13    46 1   
    29    14    15 1   
    30    14    47 1   
    31    14    48 1   
    32    15    49 1   
    33    16    17 1   
    34    16    19 1   
    35    16    50 1   
    36    17    23 1   
    37    18    51 1   
    38    18    52 1   
    39    19    20 1   
    40    19    53 1   
    41    19    54 1   
    42    20    21 1   
    43    20    26 1   
    44    21    22 2   
    45    21    23 1   
    46    23    55 1   
    47    24    56 1   
    48    24    57 1   
    49    24    58 1   
    50    25    59 1   
    51    25    60 1   
    52    25    61 1   
    53    26    27 1   
    54    26    28 1   
    55    26    62 1   
    56    27    63 1   
    57    27    64 1   
    58    27    65 1   
    59    28    29 ar  
    60    28    33 ar  
    61    29    30 ar  
    62    29    66 1   
    63    30    31 ar  
    64    30    67 1   
    65    31    32 ar  
    66    31    68 1   
    67    32    33 ar  
    68    32    34 ar  
    69    33    37 ar  
    70    34    35 ar  
    71    34    69 1   
    72    35    36 ar  
    73    35    70 1   
    74    36    37 ar  
    75    36    71 1   
    76    37    72 1   
@<TRIPOS>SUBSTRUCTURE
     1 9A2         1 TEMP              0 ****  ****    0 ROOT
