@<TRIPOS>MOLECULE
9A3
   57    61     1     0     0
SMALL
No Charge or Current Charge


@<TRIPOS>ATOM
      1 C14          0.8670    -2.4440     0.8430 ca         1 9A3      -0.071300
      2 C12          2.0170    -0.1830     1.0880 cc         1 9A3       0.383300
      3 C10         -3.9980     0.7560    -0.8320 ca         1 9A3      -0.093000
      4 C11          0.9930     0.6930     0.5780 cc         1 9A3       0.004000
      5 C13          1.5700    -1.4560     1.7710 c3         1 9A3      -0.077400
      6 C15          1.4620    -2.8230    -0.3770 ca         1 9A3      -0.094000
      7 C01          0.3860     2.6350    -0.4810 c          1 9A3       0.470800
      8 C02         -0.8470     1.7580    -0.1100 c5         1 9A3       0.259200
      9 C03         -1.5720     1.2930    -1.4020 c3         1 9A3      -0.012100
     10 C04         -2.7130     0.3010    -1.1780 ca         1 9A3      -0.047300
     11 C05         -2.4910    -1.0810    -1.3240 ca         1 9A3      -0.093000
     12 C06         -3.5400    -1.9950    -1.1310 ca         1 9A3      -0.062500
     13 C07         -4.8320    -1.5430    -0.7880 ca         1 9A3      -0.191300
     14 C08         -5.9690    -2.5460    -0.5610 c3         1 9A3       0.356300
     15 C09         -5.0480    -0.1560    -0.6320 ca         1 9A3      -0.062500
     16 C16          0.8150    -3.7340    -1.2300 ca         1 9A3      -0.112000
     17 C17         -0.4280    -4.2780    -0.8660 ca         1 9A3      -0.109000
     18 C18         -1.0230    -3.9100     0.3520 ca         1 9A3      -0.112000
     19 C19         -0.3800    -2.9930     1.2010 ca         1 9A3      -0.094000
     20 C20          3.7480     1.2240     0.3810 cd         1 9A3       0.337500
     21 C21          2.7790     2.0910    -0.1140 cc         1 9A3      -0.086000
     22 C22          5.2110     1.4880     0.2870 ca         1 9A3      -0.172500
     23 C23          6.1480     0.5620     0.8120 ca         1 9A3      -0.047000
     24 C24          7.5300     0.8050     0.7270 ca         1 9A3      -0.181000
     25 C25          8.0030     1.9740     0.1180 ca         1 9A3       0.150100
     26 C26          7.0960     2.9000    -0.4060 ca         1 9A3      -0.181000
     27 C27          5.7120     2.6650    -0.3250 ca         1 9A3      -0.047000
     28 F01         -5.9830    -2.9900     0.7160 f          1 9A3      -0.114333
     29 F02         -7.1870    -2.0110    -0.8070 f          1 9A3      -0.114333
     30 F03         -5.8590    -3.6340    -1.3570 f          1 9A3      -0.114333
     31 N01          1.4210     1.8300    -0.0340 n          1 9A3      -0.056800
     32 N02         -0.3020     0.5600     0.6260 n2         1 9A3      -0.316200
     33 N03          3.3360     0.0330     1.0090 nd         1 9A3      -0.631000
     34 O01          0.4740     3.7560    -0.9730 o          1 9A3      -0.456000
     35 O02         -1.7890     2.5060     0.7190 os         1 9A3      -0.189000
     36 O03         -1.1320     3.0090     1.9520 oh         1 9A3      -0.433000
     37 O04          9.3410     2.2150     0.0320 oh         1 9A3      -0.530100
     38 H2           0.9140    -1.1860     2.6070 hc         1 9A3       0.077200
     39 H3           2.4320    -1.9530     2.2320 hc         1 9A3       0.077200
     40 H4           2.4280    -2.4130    -0.6660 ha         1 9A3       0.111000
     41 H5          -1.9560     2.1730    -1.9330 hc         1 9A3       0.072200
     42 H6          -0.8370     0.8480    -2.0840 hc         1 9A3       0.072200
     43 H7          -1.5020    -1.4510    -1.5840 ha         1 9A3       0.122000
     44 H8          -3.3430    -3.0590    -1.2480 ha         1 9A3       0.130000
     45 H9          -6.0310     0.2220    -0.3550 ha         1 9A3       0.130000
     46 H10          1.2780    -4.0200    -2.1720 ha         1 9A3       0.112000
     47 H11         -0.9280    -4.9850    -1.5240 ha         1 9A3       0.111000
     48 H12         -1.9850    -4.3310     0.6380 ha         1 9A3       0.112000
     49 H13         -0.8530    -2.7120     2.1390 ha         1 9A3       0.111000
     50 H14          2.9690     3.0320    -0.6080 h4         1 9A3       0.163000
     51 H15          5.8170    -0.3560     1.2920 ha         1 9A3       0.125500
     52 H16          8.2260     0.0770     1.1380 ha         1 9A3       0.123000
     53 H17          7.4630     3.8080    -0.8790 ha         1 9A3       0.123000
     54 H18          5.0470     3.4130    -0.7460 ha         1 9A3       0.125500
     55 H20         -1.1420     3.9800     1.7900 ho         1 9A3       0.452000
     56 H21          9.8180     1.4650     0.4480 ho         1 9A3       0.467000
     57 H1          -4.1860     1.8210    -0.7120 ha         1 9A3       0.122000
@<TRIPOS>BOND
     1     1     5 1   
     2     1     6 ar  
     3     1    19 ar  
     4     2     4 1   
     5     2     5 1   
     6     2    33 2   
     7     3    10 ar  
     8     3    15 ar  
     9     3    57 1   
    10     4    31 1   
    11     4    32 2   
    12     5    38 1   
    13     5    39 1   
    14     6    16 ar  
    15     6    40 1   
    16     7     8 1   
    17     7    31 1   
    18     7    34 2   
    19     8     9 1   
    20     8    32 1   
    21     8    35 1   
    22     9    10 1   
    23     9    41 1   
    24     9    42 1   
    25    10    11 ar  
    26    11    12 ar  
    27    11    43 1   
    28    12    13 ar  
    29    12    44 1   
    30    13    14 1   
    31    13    15 ar  
    32    14    28 1   
    33    14    29 1   
    34    14    30 1   
    35    15    45 1   
    36    16    17 ar  
    37    16    46 1   
    38    17    18 ar  
    39    17    47 1   
    40    18    19 ar  
    41    18    48 1   
    42    19    49 1   
    43    20    21 2   
    44    20    22 1   
    45    20    33 1   
    46    21    31 1   
    47    21    50 1   
    48    22    23 ar  
    49    22    27 ar  
    50    23    24 ar  
    51    23    51 1   
    52    24    25 ar  
    53    24    52 1   
    54    25    26 ar  
    55    25    37 1   
    56    26    27 ar  
    57    26    53 1   
    58    27    54 1   
    59    35    36 1   
    60    36    55 1   
    61    37    56 1   
@<TRIPOS>SUBSTRUCTURE
     1 9A3         1 TEMP              0 ****  ****    0 ROOT
