@<TRIPOS>MOLECULE
9A3
   57    61     1     0     0
SMALL
abcg2


@<TRIPOS>ATOM
      1 C14          1.9520    -2.9740     0.3190 ca         1 9A3      -0.071300
      2 C12          1.3810    -0.5440     0.2680 cc         1 9A3       0.383300
      3 C10         -4.6920     1.7100    -0.1800 ca         1 9A3      -0.093000
      4 C11          0.4120     0.5420     0.3280 cc         1 9A3       0.004000
      5 C13          0.8700    -1.9420     0.4330 c3         1 9A3      -0.077400
      6 C15          2.6960    -3.3470     1.4340 ca         1 9A3      -0.094000
      7 C01         -0.0940     2.7200     0.2650 c          1 9A3       0.470800
      8 C02         -1.3430     1.8290     0.4450 c5         1 9A3       0.259200
      9 C03         -2.2680     2.0090    -0.7660 c3         1 9A3      -0.012100
     10 C04         -3.5090     1.1680    -0.6740 ca         1 9A3      -0.047300
     11 C05         -3.5030    -0.1620    -1.0820 ca         1 9A3      -0.093000
     12 C06         -4.6500    -0.9350    -1.0020 ca         1 9A3      -0.062500
     13 C07         -5.8260    -0.3810    -0.5080 ca         1 9A3      -0.191300
     14 C08         -7.0520    -1.2260    -0.3770 c3         1 9A3       0.356300
     15 C09         -5.8450     0.9450    -0.0960 ca         1 9A3      -0.062500
     16 C16          3.7250    -4.2710     1.3220 ca         1 9A3      -0.112000
     17 C17          4.0240    -4.8350     0.0880 ca         1 9A3      -0.109000
     18 C18          3.2830    -4.4720    -1.0290 ca         1 9A3      -0.112000
     19 C19          2.2550    -3.5460    -0.9120 ca         1 9A3      -0.094000
     20 C20          3.1150     0.9860    -0.0680 cd         1 9A3       0.337500
     21 C21          2.2810     2.0490    -0.0370 cc         1 9A3      -0.086000
     22 C22          4.5700     1.0850    -0.2630 ca         1 9A3      -0.172500
     23 C23          5.3520    -0.0700    -0.2930 ca         1 9A3      -0.047000
     24 C24          6.7230    -0.0080    -0.4780 ca         1 9A3      -0.181000
     25 C25          7.3530     1.2220    -0.6400 ca         1 9A3       0.150100
     26 C26          6.5860     2.3870    -0.6110 ca         1 9A3      -0.181000
     27 C27          5.2200     2.3120    -0.4250 ca         1 9A3      -0.047000
     28 F01         -7.0980    -1.8510     0.8110 f          1 9A3      -0.114333
     29 F02         -8.1780    -0.5090    -0.4740 f          1 9A3      -0.114333
     30 F03         -7.1150    -2.1810    -1.3120 f          1 9A3      -0.114333
     31 N01          0.9420     1.8100     0.1470 n          1 9A3      -0.056800
     32 N02         -0.8460     0.4770     0.5280 n2         1 9A3      -0.316200
     33 N03          2.6220    -0.2980     0.0860 nd         1 9A3      -0.631000
     34 O01         -0.0100     3.9140     0.2060 o          1 9A3      -0.456000
     35 O02         -2.0780     2.2040     1.5680 os         1 9A3      -0.189000
     36 O03         -1.2160     2.1390     2.6820 oh         1 9A3      -0.433000
     37 O04          8.6800     1.3480    -0.8240 oh         1 9A3      -0.530100
     38 H2           0.0870    -2.1090    -0.3140 hc         1 9A3       0.077200
     39 H3           0.3630    -2.0050     1.4010 hc         1 9A3       0.077200
     40 H4           2.4690    -2.9100     2.4000 ha         1 9A3       0.111000
     41 H5          -2.5290     3.0660    -0.8470 hc         1 9A3       0.072200
     42 H6          -1.7000     1.7520    -1.6620 hc         1 9A3       0.072200
     43 H7          -2.5960    -0.6010    -1.4750 ha         1 9A3       0.122000
     44 H8          -4.6130    -1.9650    -1.3320 ha         1 9A3       0.130000
     45 H9          -6.7490     1.3980     0.2880 ha         1 9A3       0.130000
     46 H10          4.2950    -4.5520     2.1990 ha         1 9A3       0.112000
     47 H11          4.8250    -5.5580     0.0000 ha         1 9A3       0.111000
     48 H12          3.5040    -4.9120    -1.9940 ha         1 9A3       0.112000
     49 H13          1.6810    -3.2680    -1.7880 ha         1 9A3       0.111000
     50 H14          2.5680     3.0830    -0.1540 h4         1 9A3       0.163000
     51 H15          4.8800    -1.0360    -0.1670 ha         1 9A3       0.125500
     52 H16          7.3030    -0.9240    -0.4980 ha         1 9A3       0.123000
     53 H17          7.0640     3.3500    -0.7360 ha         1 9A3       0.123000
     54 H18          4.6620     3.2400    -0.4050 ha         1 9A3       0.125500
     55 H20         -1.1720     3.0670     2.9570 ho         1 9A3       0.452000
     56 H21          9.1030     0.4820    -0.8280 ho         1 9A3       0.467000
     57 H1          -4.7210     2.7450     0.1340 ha         1 9A3       0.122000
@<TRIPOS>BOND
     1     1     5 1   
     2     1     6 ar  
     3     1    19 ar  
     4     2     4 1   
     5     2     5 1   
     6     2    33 2   
     7     3    10 ar  
     8     3    15 ar  
     9     3    57 1   
    10     4    31 1   
    11     4    32 2   
    12     5    38 1   
    13     5    39 1   
    14     6    16 ar  
    15     6    40 1   
    16     7     8 1   
    17     7    31 1   
    18     7    34 2   
    19     8     9 1   
    20     8    32 1   
    21     8    35 1   
    22     9    10 1   
    23     9    41 1   
    24     9    42 1   
    25    10    11 ar  
    26    11    12 ar  
    27    11    43 1   
    28    12    13 ar  
    29    12    44 1   
    30    13    14 1   
    31    13    15 ar  
    32    14    28 1   
    33    14    29 1   
    34    14    30 1   
    35    15    45 1   
    36    16    17 ar  
    37    16    46 1   
    38    17    18 ar  
    39    17    47 1   
    40    18    19 ar  
    41    18    48 1   
    42    19    49 1   
    43    20    21 2   
    44    20    22 1   
    45    20    33 1   
    46    21    31 1   
    47    21    50 1   
    48    22    23 ar  
    49    22    27 ar  
    50    23    24 ar  
    51    23    51 1   
    52    24    25 ar  
    53    24    52 1   
    54    25    26 ar  
    55    25    37 1   
    56    26    27 ar  
    57    26    53 1   
    58    27    54 1   
    59    35    36 1   
    60    36    55 1   
    61    37    56 1   
@<TRIPOS>SUBSTRUCTURE
     1 9A3         1 TEMP              0 ****  ****    0 ROOT
