@<TRIPOS>MOLECULE
9A4
   13    12     1     0     0
SMALL
abcg2


@<TRIPOS>ATOM
      1 O01          2.0820    -0.0070     0.5170 oh         1 9A4      -0.657000
      2 C02          1.0370     0.2860    -0.3920 c3         1 9A4       0.196800
      3 C03         -0.0360    -0.7390    -0.2180 c2         1 9A4      -0.222200
      4 C04         -1.3370    -0.5210    -0.0340 c2         1 9A4      -0.204200
      5 C05         -2.0470     0.7900     0.0640 c3         1 9A4      -0.060900
      6 H011         2.8210     0.5740     0.3130 ho         1 9A4       0.439000
      7 H021         0.6440     1.2970    -0.2390 h1         1 9A4       0.022200
      8 H022         1.3980     0.2450    -1.4280 h1         1 9A4       0.022200
      9 H031         0.3030    -1.7700    -0.2780 ha         1 9A4       0.178000
     10 H041        -1.9780    -1.3930     0.0510 ha         1 9A4       0.167000
     11 H051        -1.3780     1.6500     0.0430 hc         1 9A4       0.040033
     12 H053        -2.7560     0.9040    -0.7590 hc         1 9A4       0.040033
     13 H052        -2.6330     0.8390     0.9840 hc         1 9A4       0.040033
@<TRIPOS>BOND
     1     1     2 1   
     2     1     6 1   
     3     2     3 1   
     4     2     7 1   
     5     2     8 1   
     6     3     4 2   
     7     3     9 1   
     8     4     5 1   
     9     4    10 1   
    10     5    11 1   
    11     5    12 1   
    12     5    13 1   
@<TRIPOS>SUBSTRUCTURE
     1 9A4         1 TEMP              0 ****  ****    0 ROOT
