@<TRIPOS>MOLECULE
9A4
   13    12     1     0     0
SMALL
No Charge or Current Charge


@<TRIPOS>ATOM
      1 O01          2.3230    -0.2670    -0.0720 oh         1 9A4      -0.657000
      2 C02          1.0280     0.3300    -0.1430 c3         1 9A4       0.196800
      3 C03         -0.0340    -0.7360     0.0200 c2         1 9A4      -0.222200
      4 C04         -1.3650    -0.5450     0.0070 c2         1 9A4      -0.204200
      5 C05         -2.0880     0.7760    -0.1740 c3         1 9A4      -0.060900
      6 H011         2.9750     0.4600    -0.1820 ho         1 9A4       0.439000
      7 H021         0.9140     1.0840     0.6470 h1         1 9A4       0.022200
      8 H022         0.8950     0.8330    -1.1100 h1         1 9A4       0.022200
      9 H031         0.3630    -1.7430     0.1600 ha         1 9A4       0.178000
     10 H041        -2.0350    -1.3990     0.1360 ha         1 9A4       0.167000
     11 H051        -1.3970     1.6180    -0.3020 hc         1 9A4       0.040033
     12 H053        -2.7380     0.7460    -1.0570 hc         1 9A4       0.040033
     13 H052        -2.7200     0.9970     0.6950 hc         1 9A4       0.040033
@<TRIPOS>BOND
     1     1     2 1   
     2     1     6 1   
     3     2     3 1   
     4     2     7 1   
     5     2     8 1   
     6     3     4 2   
     7     3     9 1   
     8     4     5 1   
     9     4    10 1   
    10     5    11 1   
    11     5    12 1   
    12     5    13 1   
@<TRIPOS>SUBSTRUCTURE
     1 9A4         1 TEMP              0 ****  ****    0 ROOT
