@<TRIPOS>MOLECULE
9A5
   73    77     1     0     0
SMALL
No Charge or Current Charge


@<TRIPOS>ATOM
      1 CAT          8.2870     2.9700    -1.5960 c6         1 9A5      -0.133700
      2 CAP          7.2240     4.0110    -2.0130 c6         1 9A5      -0.075400
      3 CAQ          6.2700     4.2980    -0.8380 c6         1 9A5      -0.076400
      4 CAU          5.5070     3.0160    -0.4360 c6         1 9A5      -0.020100
      5 CBE          6.4160     1.7790    -0.2790 ca         1 9A5      -0.150300
      6 CBD          7.7110     1.7710    -0.8360 ca         1 9A5       0.401300
      7 NAW          8.5630     0.7330    -0.7180 nb         1 9A5      -0.693000
      8 CBG          8.1710    -0.3640    -0.0410 ca         1 9A5       0.300000
      9 CAK          9.0660    -1.4420     0.0760 ca         1 9A5      -0.080000
     10 CBB          8.7050    -2.6060     0.7660 ca         1 9A5       0.127000
     11 Cl           9.8440    -3.9400     0.8970 cl         1 9A5      -0.199000
     12 CAF          7.4360    -2.7120     1.3480 ca         1 9A5      -0.109000
     13 CAI          6.5270    -1.6470     1.2430 ca         1 9A5      -0.086000
     14 CBJ          6.8880    -0.4630     0.5510 ca         1 9A5      -0.124000
     15 CBF          5.9960     0.6280     0.4220 ca         1 9A5       0.318000
     16 NAY          4.7220     0.5700     1.0070 nu         1 9A5      -0.934200
     17 CAS          3.4760     0.4050     0.2450 c3         1 9A5       0.192800
     18 CAO          2.2690     0.3390     1.1990 c3         1 9A5      -0.084400
     19 CAM          0.9260     0.1680     0.4560 c3         1 9A5      -0.074400
     20 CAL         -0.2880     0.1020     1.4090 c3         1 9A5      -0.072400
     21 CAN         -1.6310    -0.0690     0.6650 c3         1 9A5      -0.094400
     22 CAR         -2.8390    -0.1330     1.6180 c3         1 9A5       0.105000
     23 NAX         -4.0950    -0.2940     0.8850 ns         1 9A5      -0.506900
     24 C           -5.3430    -0.2930     1.4730 c          1 9A5       0.604100
     25 O           -5.4840    -0.1670     2.6850 o          1 9A5      -0.605100
     26 CA          -6.5540    -0.4840     0.4870 c3         1 9A5       0.091500
     27 N           -7.3830    -1.7150     0.7120 n8         1 9A5      -0.987200
     28 CB          -7.4500     0.7810     0.4630 c3         1 9A5      -0.038200
     29 CG          -8.5550     0.7240    -0.5650 cc         1 9A5      -0.151400
     30 CD2         -9.8920     0.2310    -0.3780 ca         1 9A5      -0.100800
     31 CE3        -10.5240    -0.2780     0.7680 ca         1 9A5      -0.068000
     32 CZ3        -11.8690    -0.6890     0.6540 ca         1 9A5      -0.136000
     33 CH2        -12.5470    -0.5810    -0.5830 ca         1 9A5      -0.090000
     34 CZ2        -11.8840    -0.0580    -1.7140 ca         1 9A5      -0.127000
     35 CE2        -10.5480     0.3420    -1.5720 ca         1 9A5      -0.046200
     36 NE1         -9.7210     0.8850    -2.5370 na         1 9A5      -0.220700
     37 CD1         -8.4800     1.1230    -1.8970 cd         1 9A5      -0.154100
     38 H1           8.8270     2.6260    -2.4880 hc         1 9A5       0.064200
     39 H2           9.0350     3.4580    -0.9560 hc         1 9A5       0.064200
     40 H3           7.7130     4.9380    -2.3420 hc         1 9A5       0.044700
     41 H4           6.6500     3.6350    -2.8720 hc         1 9A5       0.044700
     42 H5           6.8410     4.6770     0.0210 hc         1 9A5       0.045200
     43 H6           5.5560     5.0860    -1.1130 hc         1 9A5       0.045200
     44 H7           4.9550     3.2090     0.4940 hc         1 9A5       0.051700
     45 H8           4.7530     2.8050    -1.2060 hc         1 9A5       0.051700
     46 H9          10.0510    -1.3710    -0.3740 ha         1 9A5       0.146000
     47 H10          7.1560    -3.6180     1.8790 ha         1 9A5       0.130000
     48 H11          5.5460    -1.7620     1.6980 ha         1 9A5       0.109000
     49 H12          4.7230     0.0680     1.8930 hn         1 9A5       0.446000
     50 H13          3.3360     1.2390    -0.4530 h1         1 9A5       0.039700
     51 H14          3.5220    -0.5220    -0.3450 h1         1 9A5       0.039700
     52 H15          2.4040    -0.4980     1.8960 hc         1 9A5       0.048700
     53 H16          2.2350     1.2580     1.7980 hc         1 9A5       0.048700
     54 H17          0.7920     1.0040    -0.2420 hc         1 9A5       0.039700
     55 H18          0.9620    -0.7490    -0.1450 hc         1 9A5       0.039700
     56 H19         -0.1540    -0.7340     2.1070 hc         1 9A5       0.045200
     57 H20         -0.3240     1.0190     2.0110 hc         1 9A5       0.045200
     58 H21         -1.7670     0.7680    -0.0320 hc         1 9A5       0.042200
     59 H22         -1.5970    -0.9870     0.0650 hc         1 9A5       0.042200
     60 H23         -2.7210    -0.9800     2.3070 h1         1 9A5       0.052700
     61 H24         -2.8890     0.7900     2.2110 h1         1 9A5       0.052700
     62 H25         -4.0590    -0.4210    -0.1190 hn         1 9A5       0.311500
     63 H26         -6.1240    -0.5790    -0.5200 h1         1 9A5       0.057700
     64 H27         -7.7310    -1.7060     1.6790 hn         1 9A5       0.411000
     65 H28         -8.2410    -1.6180     0.1540 hn         1 9A5       0.411000
     66 H30         -7.8770     0.9450     1.4600 hc         1 9A5       0.057700
     67 H31         -6.8180     1.6540     0.2600 hc         1 9A5       0.057700
     68 H32         -9.9980    -0.3510     1.7170 ha         1 9A5       0.116000
     69 H33        -12.3870    -1.0890     1.5220 ha         1 9A5       0.114000
     70 H34        -13.5840    -0.8990    -0.6620 ha         1 9A5       0.112000
     71 H35        -12.3980     0.0340    -2.6680 ha         1 9A5       0.114000
     72 H36         -9.9570     1.0750    -3.5070 hn         1 9A5       0.351000
     73 H37         -7.6360     1.5490    -2.4340 h4         1 9A5       0.210000
@<TRIPOS>BOND
     1     1     2 1   
     2     1     6 1   
     3     1    38 1   
     4     1    39 1   
     5     2     3 1   
     6     2    40 1   
     7     2    41 1   
     8     3     4 1   
     9     3    42 1   
    10     3    43 1   
    11     4     5 1   
    12     4    44 1   
    13     4    45 1   
    14     5     6 ar  
    15     5    15 ar  
    16     6     7 ar  
    17     7     8 ar  
    18     8     9 ar  
    19     8    14 ar  
    20     9    10 ar  
    21     9    46 1   
    22    10    11 1   
    23    10    12 ar  
    24    12    13 ar  
    25    12    47 1   
    26    13    14 ar  
    27    13    48 1   
    28    14    15 ar  
    29    15    16 1   
    30    16    17 1   
    31    16    49 1   
    32    17    18 1   
    33    17    50 1   
    34    17    51 1   
    35    18    19 1   
    36    18    52 1   
    37    18    53 1   
    38    19    20 1   
    39    19    54 1   
    40    19    55 1   
    41    20    21 1   
    42    20    56 1   
    43    20    57 1   
    44    21    22 1   
    45    21    58 1   
    46    21    59 1   
    47    22    23 1   
    48    22    60 1   
    49    22    61 1   
    50    23    24 1   
    51    23    62 1   
    52    24    25 2   
    53    24    26 1   
    54    26    27 1   
    55    26    28 1   
    56    26    63 1   
    57    27    64 1   
    58    27    65 1   
    59    28    29 1   
    60    28    66 1   
    61    28    67 1   
    62    29    30 1   
    63    29    37 2   
    64    30    31 ar  
    65    30    35 ar  
    66    31    32 ar  
    67    31    68 1   
    68    32    33 ar  
    69    32    69 1   
    70    33    34 ar  
    71    33    70 1   
    72    34    35 ar  
    73    34    71 1   
    74    35    36 1   
    75    36    37 1   
    76    36    72 1   
    77    37    73 1   
@<TRIPOS>SUBSTRUCTURE
     1 9A5         1 TEMP              0 ****  ****    0 ROOT
