@<TRIPOS>MOLECULE
9A5
   73    77     1     0     0
SMALL
bcc


@<TRIPOS>ATOM
      1 CAT          7.5500     3.2070    -1.6040 c6         1 9A5      -0.133700
      2 CAP          6.3210     4.0630    -1.8630 c6         1 9A5      -0.075400
      3 CAQ          5.4670     4.1240    -0.6070 c6         1 9A5      -0.076400
      4 CAU          4.9390     2.7340    -0.2840 c6         1 9A5      -0.020100
      5 CBE          6.0160     1.6810    -0.2590 ca         1 9A5      -0.215600
      6 CBD          7.2680     1.9150    -0.8780 ca         1 9A5       0.466600
      7 NAW          8.2800     1.0790    -0.8230 nb         1 9A5      -0.693000
      8 CBG          8.1320    -0.0730    -0.1450 ca         1 9A5       0.430600
      9 CAK          9.2390    -0.9530    -0.0950 ca         1 9A5      -0.163300
     10 CBB          9.1290    -2.1440     0.5610 ca         1 9A5       0.035400
     11 CL          10.4820    -3.2240     0.6250 cl         1 9A5      -0.107400
     12 CAF          7.9290    -2.5310     1.1860 ca         1 9A5      -0.127000
     13 CAI          6.8540    -1.6870     1.1470 ca         1 9A5      -0.104000
     14 CBJ          6.9240    -0.4330     0.4990 ca         1 9A5      -0.189300
     15 CBF          5.8370     0.4910     0.4350 ca         1 9A5       0.179600
     16 NAY          4.6520     0.2250     1.1010 nu         1 9A5      -0.740600
     17 CAS          3.4140     0.0200     0.3530 c3         1 9A5       0.192800
     18 CAO          2.2160     0.0500     1.2860 c3         1 9A5      -0.084400
     19 CAM          0.9040    -0.1680     0.5440 c3         1 9A5      -0.074400
     20 CAL         -0.3030    -0.1750     1.4730 c3         1 9A5      -0.072400
     21 CAN         -1.6170    -0.3730     0.7290 c3         1 9A5      -0.094400
     22 CAR         -2.8080    -0.3920     1.6730 c3         1 9A5       0.105000
     23 NAX         -4.0400    -0.6010     0.9390 ns         1 9A5      -0.573900
     24 C           -5.2520    -0.4820     1.4920 c          1 9A5       0.671100
     25 O           -5.4220    -0.1880     2.6690 o          1 9A5      -0.605100
     26 CA          -6.4290    -0.6790     0.5480 c3         1 9A5       0.091500
     27 N           -7.4110    -1.5170     1.2080 n8         1 9A5      -0.876800
     28 CB          -6.9350     0.7130     0.1080 c3         1 9A5      -0.038200
     29 CG          -8.0860     0.6330    -0.8380 cc         1 9A5      -0.151400
     30 CD2         -9.4790     0.5490    -0.5080 ca         1 9A5      -0.100800
     31 CE3        -10.1940     0.5590     0.6970 ca         1 9A5      -0.086000
     32 CZ3        -11.5720     0.4700     0.6600 ca         1 9A5      -0.154000
     33 CH2        -12.2590     0.3700    -0.5620 ca         1 9A5      -0.108000
     34 CZ2        -11.5820     0.3600    -1.7670 ca         1 9A5      -0.145000
     35 CE2        -10.1920     0.4520    -1.7250 ca         1 9A5      -0.046200
     36 NE1         -9.2750     0.4720    -2.7330 na         1 9A5      -0.170400
     37 CD1         -8.0210     0.5820    -2.2030 cd         1 9A5      -0.104100
     38 H1           8.0730     2.9740    -2.5340 hc         1 9A5       0.064200
     39 H2           8.2610     3.7740    -0.9940 hc         1 9A5       0.064200
     40 H3           6.6300     5.0600    -2.1810 hc         1 9A5       0.044700
     41 H4           5.7310     3.6400    -2.6830 hc         1 9A5       0.044700
     42 H5           6.0630     4.5080     0.2270 hc         1 9A5       0.045200
     43 H6           4.6270     4.8080    -0.7350 hc         1 9A5       0.045200
     44 H7           4.4170     2.7290     0.6780 hc         1 9A5       0.051700
     45 H8           4.1830     2.4810    -1.0350 hc         1 9A5       0.051700
     46 H9          10.1570    -0.6570    -0.5850 ha         1 9A5       0.164000
     47 H10          7.8580    -3.4880     1.6840 ha         1 9A5       0.148000
     48 H11          5.9390    -2.0190     1.6200 ha         1 9A5       0.127000
     49 H12          4.7530    -0.4920     1.8030 hn         1 9A5       0.390800
     50 H13          3.3060     0.7990    -0.4000 h1         1 9A5       0.039700
     51 H14          3.4410    -0.9330    -0.1900 h1         1 9A5       0.039700
     52 H15          2.3320    -0.7230     2.0540 hc         1 9A5       0.048700
     53 H16          2.1950     1.0110     1.8090 hc         1 9A5       0.048700
     54 H17          0.7770     0.6180    -0.2090 hc         1 9A5       0.039700
     55 H18          0.9430    -1.1150    -0.0050 hc         1 9A5       0.039700
     56 H19         -0.1820    -0.9690     2.2170 hc         1 9A5       0.045200
     57 H20         -0.3380     0.7670     2.0310 hc         1 9A5       0.045200
     58 H21         -1.7480     0.4260    -0.0070 hc         1 9A5       0.042200
     59 H22         -1.5810    -1.3140     0.1680 hc         1 9A5       0.042200
     60 H23         -2.6750    -1.1800     2.4210 h1         1 9A5       0.052700
     61 H24         -2.8650     0.5540     2.2170 h1         1 9A5       0.052700
     62 H25         -3.9730    -0.9040    -0.0190 hn         1 9A5       0.311500
     63 H26         -6.0930    -1.2060    -0.3500 h1         1 9A5       0.057700
     64 H27         -7.7480    -1.0500     2.0410 hn         1 9A5       0.355800
     65 H28         -8.2130    -1.6340     0.6020 hn         1 9A5       0.355800
     66 H30         -7.2210     1.2840     0.9970 hc         1 9A5       0.057700
     67 H31         -6.1090     1.2570    -0.3580 hc         1 9A5       0.057700
     68 H32         -9.6780     0.6380     1.6460 ha         1 9A5       0.134000
     69 H33        -12.1360     0.4770     1.5830 ha         1 9A5       0.132000
     70 H34        -13.3390     0.3020    -0.5590 ha         1 9A5       0.130000
     71 H35        -12.1140     0.2840    -2.7070 ha         1 9A5       0.132000
     72 H36         -9.4840     0.4370    -3.7170 hn         1 9A5       0.300700
     73 H37         -7.1570     0.6220    -2.8480 h4         1 9A5       0.160000
@<TRIPOS>BOND
     1     1     2 1   
     2     1     6 1   
     3     1    38 1   
     4     1    39 1   
     5     2     3 1   
     6     2    40 1   
     7     2    41 1   
     8     3     4 1   
     9     3    42 1   
    10     3    43 1   
    11     4     5 1   
    12     4    44 1   
    13     4    45 1   
    14     5     6 ar  
    15     5    15 ar  
    16     6     7 ar  
    17     7     8 ar  
    18     8     9 ar  
    19     8    14 ar  
    20     9    10 ar  
    21     9    46 1   
    22    10    11 1   
    23    10    12 ar  
    24    12    13 ar  
    25    12    47 1   
    26    13    14 ar  
    27    13    48 1   
    28    14    15 ar  
    29    15    16 1   
    30    16    17 1   
    31    16    49 1   
    32    17    18 1   
    33    17    50 1   
    34    17    51 1   
    35    18    19 1   
    36    18    52 1   
    37    18    53 1   
    38    19    20 1   
    39    19    54 1   
    40    19    55 1   
    41    20    21 1   
    42    20    56 1   
    43    20    57 1   
    44    21    22 1   
    45    21    58 1   
    46    21    59 1   
    47    22    23 1   
    48    22    60 1   
    49    22    61 1   
    50    23    24 1   
    51    23    62 1   
    52    24    25 2   
    53    24    26 1   
    54    26    27 1   
    55    26    28 1   
    56    26    63 1   
    57    27    64 1   
    58    27    65 1   
    59    28    29 1   
    60    28    66 1   
    61    28    67 1   
    62    29    30 1   
    63    29    37 2   
    64    30    31 ar  
    65    30    35 ar  
    66    31    32 ar  
    67    31    68 1   
    68    32    33 ar  
    69    32    69 1   
    70    33    34 ar  
    71    33    70 1   
    72    34    35 ar  
    73    34    71 1   
    74    35    36 1   
    75    36    37 1   
    76    36    72 1   
    77    37    73 1   
@<TRIPOS>SUBSTRUCTURE
     1 9A5         1 TEMP              0 ****  ****    0 ROOT
