@<TRIPOS>MOLECULE
9A6
   59    63     1     0     0
SMALL
No Charge or Current Charge


@<TRIPOS>ATOM
      1 C7          -0.0190    42.2580    -1.9730 c3         1 9A6       0.151100
      2 N5           0.2760    40.8380    -1.6830 n3         1 9A6      -0.718600
      3 C4           0.9040    40.1290    -2.8410 c6         1 9A6       0.129300
      4 C3           1.2570    38.6400    -2.5200 c6         1 9A6       0.208300
      5 C6          -0.9270    40.0820    -1.2110 c6         1 9A6       0.129300
      6 C1          -0.6140    38.5900    -0.8610 c6         1 9A6       0.208300
      7 N2           0.0810    37.8820    -1.9840 nh         1 9A6      -0.806400
      8 C8          -0.5820    36.8820    -2.7300 ca         1 9A6       0.363000
      9 C9          -0.6730    36.9540    -4.1310 ca         1 9A6      -0.186000
     10 C10         -1.3400    35.9550    -4.8560 ca         1 9A6      -0.032000
     11 C13         -1.1690    35.7960    -2.0640 ca         1 9A6      -0.199000
     12 C12         -1.8400    34.7840    -2.7700 ca         1 9A6       0.099000
     13 C11         -1.9300    34.8640    -4.1790 ca         1 9A6      -0.219000
     14 N17         -2.3910    33.7490    -2.1060 nb         1 9A6      -0.217000
     15 C16         -3.0260    32.8060    -2.8300 ca         1 9A6       0.232800
     16 N15         -3.1640    32.8020    -4.1680 nb         1 9A6      -0.279000
     17 C14         -2.6140    33.8220    -4.8460 ca         1 9A6       0.428900
     18 N26         -2.7840    33.8250    -6.2270 nu         1 9A6      -0.889800
     19 C27         -3.1190    32.8950    -7.1580 cc         1 9A6       0.509900
     20 N28         -3.3670    33.2740    -8.3810 nd         1 9A6      -0.583800
     21 N29         -3.6380    32.0540    -9.0140 na         1 9A6      -0.017200
     22 C31         -3.1870    31.5160    -6.9420 cc         1 9A6      -0.217000
     23 C30         -3.5280    30.9620    -8.1370 cd         1 9A6      -0.121300
     24 C32         -3.7430    29.5210    -8.5190 c3         1 9A6      -0.032800
     25 C18         -3.6280    31.6750    -2.0730 ce         1 9A6      -0.273800
     26 C19         -4.3320    30.6070    -2.5540 cf         1 9A6      -0.116200
     27 C20         -4.9380    29.4730    -1.8250 ca         1 9A6      -0.060800
     28 C21         -4.8520    29.3560    -0.4200 ca         1 9A6      -0.094000
     29 C22         -5.4400    28.2640     0.2420 ca         1 9A6      -0.114500
     30 C23         -6.1200    27.2780    -0.4900 ca         1 9A6      -0.104000
     31 C24         -6.2120    27.3850    -1.8870 ca         1 9A6      -0.114500
     32 C25         -5.6240    28.4760    -2.5500 ca         1 9A6      -0.094000
     33 H1          -0.4320    42.7570    -1.0870 h1         1 9A6       0.033700
     34 H2           0.8940    42.7920    -2.2680 h1         1 9A6       0.033700
     35 H3          -0.7490    42.3480    -2.7900 h1         1 9A6       0.033700
     36 H5           1.8240    40.6460    -3.1510 h1         1 9A6       0.042450
     37 H6           0.2230    40.1450    -3.7050 h1         1 9A6       0.042450
     38 H7           1.6630    38.1600    -3.4230 h1         1 9A6       0.064200
     39 H8           2.0690    38.6260    -1.7780 h1         1 9A6       0.064200
     40 H9          -1.3550    40.5660    -0.3200 h1         1 9A6       0.042450
     41 H10         -1.7070    40.0970    -1.9860 h1         1 9A6       0.042450
     42 H11         -1.5570    38.0870    -0.6020 h1         1 9A6       0.064200
     43 H12          0.0150    38.5590     0.0410 h1         1 9A6       0.064200
     44 H13         -0.2390    37.7920    -4.6660 ha         1 9A6       0.114000
     45 H14         -1.3860    36.0430    -5.9390 ha         1 9A6       0.105000
     46 H15         -1.0930    35.7320    -0.9830 ha         1 9A6       0.133000
     47 H16         -2.6300    34.7250    -6.6640 hn         1 9A6       0.511000
     48 H18         -2.9900    30.9990    -6.0120 ha         1 9A6       0.166000
     49 H19         -3.0180    29.2020    -9.2770 hc         1 9A6       0.052700
     50 H20         -3.6310    28.8610    -7.6510 hc         1 9A6       0.052700
     51 H21         -4.7480    29.3670    -8.9280 hc         1 9A6       0.052700
     52 H22         -3.4630    31.7470    -0.9990 ha         1 9A6       0.191000
     53 H23         -4.4840    30.5610    -3.6340 ha         1 9A6       0.189000
     54 H24         -4.3320    30.1040     0.1700 ha         1 9A6       0.113500
     55 H25         -5.3680    28.1830     1.3250 ha         1 9A6       0.112500
     56 H26         -6.5750    26.4330     0.0240 ha         1 9A6       0.112000
     57 H27         -6.7380    26.6220    -2.4570 ha         1 9A6       0.112500
     58 H28         -5.7040    28.5440    -3.6320 ha         1 9A6       0.113500
     59 H17         -3.8770    32.0060   -10.0050 hn         1 9A6       0.371000
@<TRIPOS>BOND
     1     1     2 1   
     2     1    33 1   
     3     1    34 1   
     4     1    35 1   
     5     2     3 1   
     6     2     5 1   
     7     3     4 1   
     8     3    36 1   
     9     3    37 1   
    10     4     7 1   
    11     4    38 1   
    12     4    39 1   
    13     5     6 1   
    14     5    40 1   
    15     5    41 1   
    16     6     7 1   
    17     6    42 1   
    18     6    43 1   
    19     7     8 1   
    20     8     9 ar  
    21     8    11 ar  
    22     9    10 ar  
    23     9    44 1   
    24    10    13 ar  
    25    10    45 1   
    26    11    12 ar  
    27    11    46 1   
    28    12    13 ar  
    29    12    14 ar  
    30    13    17 ar  
    31    14    15 ar  
    32    15    16 ar  
    33    15    25 1   
    34    16    17 ar  
    35    17    18 1   
    36    18    19 1   
    37    18    47 1   
    38    19    20 2   
    39    19    22 1   
    40    20    21 1   
    41    21    23 1   
    42    21    59 1   
    43    22    23 2   
    44    22    48 1   
    45    23    24 1   
    46    24    49 1   
    47    24    50 1   
    48    24    51 1   
    49    25    26 2   
    50    25    52 1   
    51    26    27 1   
    52    26    53 1   
    53    27    28 ar  
    54    27    32 ar  
    55    28    29 ar  
    56    28    54 1   
    57    29    30 ar  
    58    29    55 1   
    59    30    31 ar  
    60    30    56 1   
    61    31    32 ar  
    62    31    57 1   
    63    32    58 1   
@<TRIPOS>SUBSTRUCTURE
     1 9A6         1 TEMP              0 ****  ****    0 ROOT
