@<TRIPOS>MOLECULE
9A6
   59    63     1     0     0
SMALL
abcg2


@<TRIPOS>ATOM
      1 C7          -1.0620    41.7420    -1.5490 c3         1 9A6       0.151100
      2 N5          -0.1920    40.5770    -1.5310 n3         1 9A6      -0.718600
      3 C4           0.2240    40.2010    -2.8810 c6         1 9A6       0.129300
      4 C3           1.1490    38.9910    -2.8300 c6         1 9A6       0.208300
      5 C6          -0.8210    39.4520    -0.8430 c6         1 9A6       0.129300
      6 C1           0.1150    38.2470    -0.8100 c6         1 9A6       0.208300
      7 N2           0.4950    37.8650    -2.1690 nh         1 9A6      -0.806400
      8 C8          -0.1810    36.8880    -2.8630 ca         1 9A6       0.363000
      9 C9          -0.1250    36.8220    -4.2880 ca         1 9A6      -0.186000
     10 C10         -0.7520    35.8220    -4.9850 ca         1 9A6      -0.032000
     11 C13         -0.9150    35.8920    -2.2130 ca         1 9A6      -0.199000
     12 C12         -1.5560    34.8630    -2.9150 ca         1 9A6       0.099000
     13 C11         -1.4850    34.8140    -4.3320 ca         1 9A6      -0.219000
     14 N17         -2.2390    33.9100    -2.2060 nb         1 9A6      -0.217000
     15 C16         -2.8240    32.9500    -2.8990 ca         1 9A6       0.232800
     16 N15         -2.8220    32.8170    -4.2500 nb         1 9A6      -0.279000
     17 C14         -2.1760    33.7260    -4.9600 ca         1 9A6       0.428900
     18 N26         -2.1660    33.6220    -6.3170 nu         1 9A6      -0.889800
     19 C27         -2.7240    32.6350    -7.1230 cc         1 9A6       0.509900
     20 N28         -2.6830    32.8340    -8.4400 nd         1 9A6      -0.583800
     21 N29         -3.2570    31.7230    -8.9630 na         1 9A6      -0.017200
     22 C31         -3.3250    31.3960    -6.8030 cc         1 9A6      -0.217000
     23 C30         -3.6560    30.8380    -8.0260 cd         1 9A6      -0.121300
     24 C32         -4.3130    29.5440    -8.3600 c3         1 9A6      -0.032800
     25 C18         -3.5410    31.9410    -2.1170 ce         1 9A6      -0.273800
     26 C19         -4.2050    30.9020    -2.6430 cf         1 9A6      -0.116200
     27 C20         -4.9280    29.8640    -1.9130 ca         1 9A6      -0.060800
     28 C21         -5.0250    29.8310    -0.5130 ca         1 9A6      -0.094000
     29 C22         -5.7210    28.8170     0.1250 ca         1 9A6      -0.114500
     30 C23         -6.3390    27.8090    -0.6150 ca         1 9A6      -0.104000
     31 C24         -6.2540    27.8280    -2.0030 ca         1 9A6      -0.114500
     32 C25         -5.5570    28.8450    -2.6430 ca         1 9A6      -0.094000
     33 H1          -1.3130    42.0290    -0.5260 h1         1 9A6       0.033700
     34 H2          -0.5490    42.5770    -2.0290 h1         1 9A6       0.033700
     35 H3          -2.0020    41.5560    -2.0950 h1         1 9A6       0.033700
     36 H5           0.7470    41.0470    -3.3340 h1         1 9A6       0.042450
     37 H6          -0.6480    39.9670    -3.5170 h1         1 9A6       0.042450
     38 H7           1.4910    38.7230    -3.8240 h1         1 9A6       0.064200
     39 H8           2.0340    39.2450    -2.2410 h1         1 9A6       0.064200
     40 H9          -1.0620    39.7570     0.1780 h1         1 9A6       0.042450
     41 H10         -1.7650    39.1600    -1.3370 h1         1 9A6       0.042450
     42 H11         -0.3550    37.4230    -0.2850 h1         1 9A6       0.064200
     43 H12          1.0260    38.5080    -0.2670 h1         1 9A6       0.064200
     44 H13          0.4070    37.5720    -4.8510 ha         1 9A6       0.114000
     45 H14         -0.6660    35.8360    -6.0640 ha         1 9A6       0.105000
     46 H15         -1.0030    35.8630    -1.1380 ha         1 9A6       0.133000
     47 H16         -1.7160    34.3590    -6.8380 hn         1 9A6       0.511000
     48 H18         -3.4900    30.9770    -5.8310 ha         1 9A6       0.166000
     49 H19         -3.6740    28.9300    -8.9990 hc         1 9A6       0.052700
     50 H20         -4.5220    28.9880    -7.4480 hc         1 9A6       0.052700
     51 H21         -5.2550    29.7050    -8.8890 hc         1 9A6       0.052700
     52 H22         -3.4960    32.0960    -1.0470 ha         1 9A6       0.191000
     53 H23         -4.2180    30.8040    -3.7220 ha         1 9A6       0.189000
     54 H24         -4.5520    30.6030     0.0810 ha         1 9A6       0.113500
     55 H25         -5.7840    28.8080     1.2060 ha         1 9A6       0.112500
     56 H26         -6.8810    27.0180    -0.1120 ha         1 9A6       0.112000
     57 H27         -6.7300    27.0510    -2.5880 ha         1 9A6       0.112500
     58 H28         -5.4910    28.8570    -3.7250 ha         1 9A6       0.113500
     59 H17         -3.3450    31.6360    -9.9630 hn         1 9A6       0.371000
@<TRIPOS>BOND
     1     1     2 1   
     2     1    33 1   
     3     1    34 1   
     4     1    35 1   
     5     2     3 1   
     6     2     5 1   
     7     3     4 1   
     8     3    36 1   
     9     3    37 1   
    10     4     7 1   
    11     4    38 1   
    12     4    39 1   
    13     5     6 1   
    14     5    40 1   
    15     5    41 1   
    16     6     7 1   
    17     6    42 1   
    18     6    43 1   
    19     7     8 1   
    20     8     9 ar  
    21     8    11 ar  
    22     9    10 ar  
    23     9    44 1   
    24    10    13 ar  
    25    10    45 1   
    26    11    12 ar  
    27    11    46 1   
    28    12    13 ar  
    29    12    14 ar  
    30    13    17 ar  
    31    14    15 ar  
    32    15    16 ar  
    33    15    25 1   
    34    16    17 ar  
    35    17    18 1   
    36    18    19 1   
    37    18    47 1   
    38    19    20 2   
    39    19    22 1   
    40    20    21 1   
    41    21    23 1   
    42    21    59 1   
    43    22    23 2   
    44    22    48 1   
    45    23    24 1   
    46    24    49 1   
    47    24    50 1   
    48    24    51 1   
    49    25    26 2   
    50    25    52 1   
    51    26    27 1   
    52    26    53 1   
    53    27    28 ar  
    54    27    32 ar  
    55    28    29 ar  
    56    28    54 1   
    57    29    30 ar  
    58    29    55 1   
    59    30    31 ar  
    60    30    56 1   
    61    31    32 ar  
    62    31    57 1   
    63    32    58 1   
@<TRIPOS>SUBSTRUCTURE
     1 9A6         1 TEMP              0 ****  ****    0 ROOT
