@<TRIPOS>MOLECULE
9A7
   13    12     1     0     0
SMALL
bcc


@<TRIPOS>ATOM
      1 O01          2.1460    -0.2950     0.5820 oh         1 9A7      -0.593800
      2 C02          1.2830     0.4490    -0.2580 c3         1 9A7       0.174600
      3 C03         -0.0560    -0.2120    -0.2830 c2         1 9A7      -0.176200
      4 C04         -1.1870     0.3870     0.0760 c2         1 9A7      -0.153200
      5 C05         -2.5420    -0.2370     0.0280 c3         1 9A7      -0.057900
      6 H011         3.0400     0.0370     0.4580 ho         1 9A7       0.401000
      7 H022         1.1730     1.4860     0.0840 h1         1 9A7       0.020700
      8 H021         1.6810     0.4950    -1.2810 h1         1 9A7       0.020700
      9 H031        -0.0810    -1.2390    -0.6410 ha         1 9A7       0.128000
     10 H041        -1.1430     1.4130     0.4330 ha         1 9A7       0.114000
     11 H053        -3.2080     0.3190    -0.6350 hc         1 9A7       0.040700
     12 H051        -2.5010    -1.2690    -0.3210 hc         1 9A7       0.040700
     13 H052        -3.0100    -0.2300     1.0150 hc         1 9A7       0.040700
@<TRIPOS>BOND
     1     1     2 1   
     2     1     6 1   
     3     2     3 1   
     4     2     7 1   
     5     2     8 1   
     6     3     4 2   
     7     3     9 1   
     8     4     5 1   
     9     4    10 1   
    10     5    11 1   
    11     5    12 1   
    12     5    13 1   
@<TRIPOS>SUBSTRUCTURE
     1 9A7         1 TEMP              0 ****  ****    0 ROOT
