@<TRIPOS>MOLECULE
9A7
   13    12     1     0     0
SMALL
No Charge or Current Charge


@<TRIPOS>ATOM
      1 O01          1.9960    -0.1070     0.7840 oh         1 9A7      -0.656000
      2 C02          1.3260     0.3870    -0.3750 c3         1 9A7       0.197800
      3 C03         -0.0670    -0.1930    -0.4260 c2         1 9A7      -0.226200
      4 C04         -1.1590     0.3520     0.1350 c2         1 9A7      -0.203200
      5 C05         -2.5550    -0.2320     0.0780 c3         1 9A7      -0.057900
      6 H011         2.8910     0.2980     0.7850 ho         1 9A7       0.440000
      7 H022         1.2710     1.4840    -0.3470 h1         1 9A7       0.020700
      8 H021         1.8750     0.1030    -1.2830 h1         1 9A7       0.020700
      9 H031        -0.1330    -1.1310    -0.9790 ha         1 9A7       0.178000
     10 H041        -1.0860     1.2910     0.6890 ha         1 9A7       0.164000
     11 H053        -3.2510     0.4630    -0.4050 hc         1 9A7       0.040700
     12 H051        -2.5790    -1.1730    -0.4850 hc         1 9A7       0.040700
     13 H052        -2.9340    -0.4380     1.0870 hc         1 9A7       0.040700
@<TRIPOS>BOND
     1     1     2 1   
     2     1     6 1   
     3     2     3 1   
     4     2     7 1   
     5     2     8 1   
     6     3     4 2   
     7     3     9 1   
     8     4     5 1   
     9     4    10 1   
    10     5    11 1   
    11     5    12 1   
    12     5    13 1   
@<TRIPOS>SUBSTRUCTURE
     1 9A7         1 TEMP              0 ****  ****    0 ROOT
