@<TRIPOS>MOLECULE
9A8
   37    39     1     0     0
SMALL
No Charge or Current Charge


@<TRIPOS>ATOM
      1 CAA          7.0100    -0.0430     0.6110 c3         1 9A8      -0.108100
      2 CAB          5.6540     0.4320     0.0570 c3         1 9A8       0.179300
      3 CAC          5.6660     0.5520    -1.4840 c3         1 9A8      -0.108100
      4 OAD          4.6840    -0.5640     0.4330 os         1 9A8      -0.348100
      5 CAE          3.3180    -0.3620     0.3660 ca         1 9A8       0.182100
      6 CAJ          2.4880    -1.4760     0.5510 ca         1 9A8      -0.189000
      7 CAI          1.0900    -1.3450     0.5030 ca         1 9A8      -0.031500
      8 CAF          2.7340     0.9000     0.1330 ca         1 9A8      -0.189000
      9 CAG          1.3360     1.0360     0.0850 ca         1 9A8      -0.031500
     10 CAH          0.4920    -0.0810     0.2900 ca         1 9A8      -0.201900
     11 CAK         -0.9720     0.0400     0.2020 cc         1 9A8       0.577500
     12 NAL         -1.7080    -1.0000    -0.1960 nd         1 9A8      -0.642100
     13 CAM         -3.0930    -0.7650    -0.2300 ca         1 9A8       0.196400
     14 CAR         -3.9210    -1.8210    -0.6540 ca         1 9A8      -0.108000
     15 CAQ         -5.3170    -1.6650    -0.7180 ca         1 9A8      -0.074000
     16 CAP         -5.9000    -0.4420    -0.3540 ca         1 9A8      -0.136000
     17 CAO         -5.0880     0.6210     0.0730 ca         1 9A8      -0.040000
     18 CAN         -3.6870     0.4580     0.1340 ca         1 9A8      -0.209600
     19 CAS         -2.8070     1.5590     0.5860 c          1 9A8       0.582600
     20 OAT         -3.2080     2.6570     0.9390 o          1 9A8      -0.534000
     21 NAU         -1.4940     1.2470     0.5850 ns         1 9A8      -0.435400
     22 H1           7.2820    -1.0210     0.1960 hc         1 9A8       0.048867
     23 H2           7.8010     0.6720     0.3570 hc         1 9A8       0.048867
     24 H3           6.9680    -0.1290     1.7040 hc         1 9A8       0.048867
     25 H4           5.4240     1.4050     0.5110 h1         1 9A8       0.043700
     26 H5           6.4410     1.2580    -1.8050 hc         1 9A8       0.048867
     27 H6           5.8750    -0.4200    -1.9470 hc         1 9A8       0.048867
     28 H7           4.7050     0.9150    -1.8640 hc         1 9A8       0.048867
     29 H8           2.9320    -2.4520     0.7290 ha         1 9A8       0.127500
     30 H9           0.4740    -2.2310     0.6450 ha         1 9A8       0.125500
     31 H10          3.3450     1.7850    -0.0160 ha         1 9A8       0.127500
     32 H11          0.9200     2.0200    -0.1260 ha         1 9A8       0.125500
     33 H12         -3.4760    -2.7710    -0.9380 ha         1 9A8       0.132000
     34 H13         -5.9420    -2.4910    -1.0490 ha         1 9A8       0.116000
     35 H14         -6.9800    -0.3170    -0.4020 ha         1 9A8       0.119000
     36 H15         -5.5470     1.5670     0.3550 ha         1 9A8       0.134000
     37 H16         -0.8690     1.9640     0.9140 hn         1 9A8       0.328500
@<TRIPOS>BOND
     1     1     2 1   
     2     1    22 1   
     3     1    23 1   
     4     1    24 1   
     5     2     3 1   
     6     2     4 1   
     7     2    25 1   
     8     3    26 1   
     9     3    27 1   
    10     3    28 1   
    11     4     5 1   
    12     5     6 ar  
    13     5     8 ar  
    14     6     7 ar  
    15     6    29 1   
    16     7    10 ar  
    17     7    30 1   
    18     8     9 ar  
    19     8    31 1   
    20     9    10 ar  
    21     9    32 1   
    22    10    11 1   
    23    11    12 2   
    24    11    21 1   
    25    12    13 1   
    26    13    14 ar  
    27    13    18 ar  
    28    14    15 ar  
    29    14    33 1   
    30    15    16 ar  
    31    15    34 1   
    32    16    17 ar  
    33    16    35 1   
    34    17    18 ar  
    35    17    36 1   
    36    18    19 1   
    37    19    20 2   
    38    19    21 1   
    39    21    37 1   
@<TRIPOS>SUBSTRUCTURE
     1 9A8         1 TEMP              0 ****  ****    0 ROOT
