@<TRIPOS>MOLECULE
9A8
   37    39     1     0     0
SMALL
abcg2


@<TRIPOS>ATOM
      1 CAA          6.8510    -0.1920     0.7340 c3         1 9A8      -0.108100
      2 CAB          5.5820     0.3540     0.1100 c3         1 9A8       0.179300
      3 CAC          5.7810     0.7270    -1.3490 c3         1 9A8      -0.108100
      4 OAD          4.5970    -0.6770     0.2410 os         1 9A8      -0.348100
      5 CAE          3.2910    -0.3970     0.1740 ca         1 9A8       0.182100
      6 CAJ          2.4250    -1.4920     0.2860 ca         1 9A8      -0.189000
      7 CAI          1.0600    -1.3140     0.2540 ca         1 9A8      -0.031500
      8 CAF          2.7450     0.8760     0.0140 ca         1 9A8      -0.189000
      9 CAG          1.3690     1.0410    -0.0100 ca         1 9A8      -0.031500
     10 CAH          0.5020    -0.0390     0.1160 ca         1 9A8      -0.201900
     11 CAK         -0.9610     0.1020     0.1040 cc         1 9A8       0.577500
     12 NAL         -1.6980    -0.9220    -0.1470 nd         1 9A8      -0.642100
     13 CAM         -3.0610    -0.7580    -0.1450 ca         1 9A8       0.196400
     14 CAR         -3.8710    -1.8700    -0.4140 ca         1 9A8      -0.108000
     15 CAQ         -5.2420    -1.7400    -0.4260 ca         1 9A8      -0.074000
     16 CAP         -5.8460    -0.5050    -0.1730 ca         1 9A8      -0.136000
     17 CAO         -5.0650     0.5970     0.0930 ca         1 9A8      -0.040000
     18 CAN         -3.6750     0.4780     0.1070 ca         1 9A8      -0.209600
     19 CAS         -2.8360     1.6350     0.4010 c          1 9A8       0.582600
     20 OAT         -3.2220     2.7530     0.6590 o          1 9A8      -0.534000
     21 NAU         -1.4830     1.3360     0.3740 ns         1 9A8      -0.435400
     22 H1           7.1900    -1.0890     0.2130 hc         1 9A8       0.048867
     23 H2           7.6430     0.5520     0.6710 hc         1 9A8       0.048867
     24 H3           6.7050    -0.4350     1.7860 hc         1 9A8       0.048867
     25 H4           5.2670     1.2340     0.6820 h1         1 9A8       0.043700
     26 H5           6.5060     1.5370    -1.4280 hc         1 9A8       0.048867
     27 H6           6.1610    -0.1230    -1.9170 hc         1 9A8       0.048867
     28 H7           4.8610     1.0670    -1.8250 hc         1 9A8       0.048867
     29 H8           2.8400    -2.4840     0.4090 ha         1 9A8       0.127500
     30 H9           0.4060    -2.1690     0.3460 ha         1 9A8       0.125500
     31 H10          3.3640     1.7540    -0.0980 ha         1 9A8       0.127500
     32 H11          1.0020     2.0480    -0.1640 ha         1 9A8       0.125500
     33 H12         -3.3950    -2.8210    -0.6100 ha         1 9A8       0.132000
     34 H13         -5.8580    -2.6050    -0.6350 ha         1 9A8       0.116000
     35 H14         -6.9240    -0.4180    -0.1870 ha         1 9A8       0.119000
     36 H15         -5.5140     1.5600     0.2960 ha         1 9A8       0.134000
     37 H16         -0.8680     2.0930     0.6350 hn         1 9A8       0.328500
@<TRIPOS>BOND
     1     1     2 1   
     2     1    22 1   
     3     1    23 1   
     4     1    24 1   
     5     2     3 1   
     6     2     4 1   
     7     2    25 1   
     8     3    26 1   
     9     3    27 1   
    10     3    28 1   
    11     4     5 1   
    12     5     6 ar  
    13     5     8 ar  
    14     6     7 ar  
    15     6    29 1   
    16     7    10 ar  
    17     7    30 1   
    18     8     9 ar  
    19     8    31 1   
    20     9    10 ar  
    21     9    32 1   
    22    10    11 1   
    23    11    12 2   
    24    11    21 1   
    25    12    13 1   
    26    13    14 ar  
    27    13    18 ar  
    28    14    15 ar  
    29    14    33 1   
    30    15    16 ar  
    31    15    34 1   
    32    16    17 ar  
    33    16    35 1   
    34    17    18 ar  
    35    17    36 1   
    36    18    19 1   
    37    19    20 2   
    38    19    21 1   
    39    21    37 1   
@<TRIPOS>SUBSTRUCTURE
     1 9A8         1 TEMP              0 ****  ****    0 ROOT
