@<TRIPOS>MOLECULE
9A9
   41    41     1     0     0
SMALL
No Charge or Current Charge


@<TRIPOS>ATOM
      1 C10        -27.3220   -39.5310    34.4280 c3         1 9A9       0.157800
      2 N12        -28.1330   -37.9730    32.5790 ns         1 9A9      -0.500900
      3 C13        -29.2950   -38.4960    32.0530 c          1 9A9       0.609700
      4 C15        -29.4890   -38.3500    30.5560 ca         1 9A9      -0.152600
      5 C17        -28.7340   -37.6220    28.3390 ca         1 9A9      -0.119000
      6 C20        -30.6720   -38.8440    29.9580 ca         1 9A9      -0.074000
      7 C01        -26.2710   -40.4890    32.3730 c3         1 9A9       0.169100
      8 C03        -24.8570   -39.3640    34.0940 c3         1 9A9       0.182800
      9 C04        -23.5480   -40.1160    33.7630 c3         1 9A9      -0.073400
     10 C05        -22.2810   -39.3510    34.2180 c3         1 9A9      -0.149400
     11 C06        -21.0020   -40.1250    33.8800 c          1 9A9       0.586100
     12 C11        -27.7190   -38.0910    33.9860 c3         1 9A9       0.066000
     13 C16        -28.5190   -37.7360    29.7240 ca         1 9A9      -0.074000
     14 C18        -29.9140   -38.1170    27.7620 ca         1 9A9      -0.089000
     15 C19        -30.8820   -38.7280    28.5730 ca         1 9A9      -0.119000
     16 N02        -26.0990   -40.1230    33.8020 n3         1 9A9      -0.744600
     17 N08        -20.2340   -39.6060    32.8500 ns         1 9A9      -0.382400
     18 O07        -20.6440   -41.1200    34.4970 o          1 9A9      -0.616100
     19 O09        -18.9160   -40.1390    32.5790 oh         1 9A9      -0.443100
     20 O14        -30.1220   -39.0480    32.7660 o          1 9A9      -0.601100
     21 H1         -27.1800   -39.5020    35.5170 h1         1 9A9       0.066200
     22 H2         -28.1820   -40.1930    34.2580 h1         1 9A9       0.066200
     23 H3         -27.5010   -37.5220    31.9310 hn         1 9A9       0.313500
     24 H4         -27.9820   -37.1490    27.7110 ha         1 9A9       0.117000
     25 H5         -31.4370   -39.3220    30.5670 ha         1 9A9       0.122500
     26 H6         -25.4870   -41.1840    32.0490 h1         1 9A9       0.029700
     27 H7         -27.2370   -40.9860    32.2110 h1         1 9A9       0.029700
     28 H8         -26.2260   -39.6020    31.7270 h1         1 9A9       0.029700
     29 H9         -24.8350   -39.1160    35.1640 h1         1 9A9       0.022200
     30 H10        -24.8610   -38.4130    33.5440 h1         1 9A9       0.022200
     31 H11        -23.4860   -40.2900    32.6830 hc         1 9A9       0.063700
     32 H12        -23.5720   -41.0990    34.2490 hc         1 9A9       0.063700
     33 H13        -22.3290   -39.2140    35.3050 hc         1 9A9       0.060200
     34 H14        -22.2690   -38.3720    33.7220 hc         1 9A9       0.060200
     35 H15        -26.8800   -37.4070    34.1640 h1         1 9A9       0.055700
     36 H16        -28.5520   -37.7510    34.6160 h1         1 9A9       0.055700
     37 H17        -27.5910   -37.3420    30.1310 ha         1 9A9       0.122500
     38 H18        -30.0770   -38.0280    26.6900 ha         1 9A9       0.116000
     39 H19        -31.7970   -39.1130    28.1290 ha         1 9A9       0.117000
     40 H21        -20.4500   -38.6900    32.4580 hn         1 9A9       0.358500
     41 H22        -18.7510   -40.7160    33.3650 ho         1 9A9       0.477000
@<TRIPOS>BOND
     1     1    12 1   
     2     1    16 1   
     3     1    21 1   
     4     1    22 1   
     5     2     3 1   
     6     2    12 1   
     7     2    23 1   
     8     3     4 1   
     9     3    20 2   
    10     4     6 ar  
    11     4    13 ar  
    12     5    13 ar  
    13     5    14 ar  
    14     5    24 1   
    15     6    15 ar  
    16     6    25 1   
    17     7    16 1   
    18     7    26 1   
    19     7    27 1   
    20     7    28 1   
    21     8     9 1   
    22     8    16 1   
    23     8    29 1   
    24     8    30 1   
    25     9    10 1   
    26     9    31 1   
    27     9    32 1   
    28    10    11 1   
    29    10    33 1   
    30    10    34 1   
    31    11    17 1   
    32    11    18 2   
    33    12    35 1   
    34    12    36 1   
    35    13    37 1   
    36    14    15 ar  
    37    14    38 1   
    38    15    39 1   
    39    17    19 1   
    40    17    40 1   
    41    19    41 1   
@<TRIPOS>SUBSTRUCTURE
     1 9A9         1 TEMP              0 ****  ****    0 ROOT
