@<TRIPOS>MOLECULE
9A9
   41    41     1     0     0
SMALL
abcg2


@<TRIPOS>ATOM
      1 C10        -27.2710   -39.4950    34.4240 c3         1 9A9       0.157800
      2 N12        -28.0210   -37.9880    32.5630 ns         1 9A9      -0.500900
      3 C13        -29.2060   -38.3860    32.0750 c          1 9A9       0.609700
      4 C15        -29.3870   -38.2540    30.5950 ca         1 9A9      -0.152600
      5 C17        -28.9750   -37.1730    28.4770 ca         1 9A9      -0.119000
      6 C20        -30.2470   -39.1460    29.9560 ca         1 9A9      -0.074000
      7 C01        -26.3090   -40.6210    32.4720 c3         1 9A9       0.169100
      8 C03        -24.9010   -39.3290    33.9590 c3         1 9A9       0.182800
      9 C04        -23.6330   -40.1480    33.7560 c3         1 9A9      -0.073400
     10 C05        -22.3900   -39.3010    34.0190 c3         1 9A9      -0.149400
     11 C06        -21.1290   -40.1030    33.8460 c          1 9A9       0.586100
     12 C11        -27.6700   -38.0890    33.9620 c3         1 9A9       0.066000
     13 C16        -28.7570   -37.2620    29.8450 ca         1 9A9      -0.074000
     14 C18        -29.8170   -38.0780    27.8460 ca         1 9A9      -0.089000
     15 C19        -30.4520   -39.0650    28.5880 ca         1 9A9      -0.119000
     16 N02        -26.1110   -40.1080    33.8120 n3         1 9A9      -0.744600
     17 N08        -20.2650   -39.6250    32.9510 ns         1 9A9      -0.382400
     18 O07        -20.8830   -41.1350    34.4670 o          1 9A9      -0.616100
     19 O09        -19.0940   -40.2850    32.6900 oh         1 9A9      -0.443100
     20 O14        -30.0990   -38.8390    32.7810 o          1 9A9      -0.601100
     21 H1         -27.0930   -39.4290    35.5020 h1         1 9A9       0.066200
     22 H2         -28.1210   -40.1680    34.2940 h1         1 9A9       0.066200
     23 H3         -27.2870   -37.7400    31.9200 hn         1 9A9       0.313500
     24 H4         -28.4890   -36.3930    27.9070 ha         1 9A9       0.117000
     25 H5         -30.7490   -39.9120    30.5320 ha         1 9A9       0.122500
     26 H6         -25.5940   -41.4170    32.2570 h1         1 9A9       0.029700
     27 H7         -27.3060   -41.0530    32.3840 h1         1 9A9       0.029700
     28 H8         -26.2000   -39.8670    31.6800 h1         1 9A9       0.029700
     29 H9         -24.8860   -38.9150    34.9720 h1         1 9A9       0.022200
     30 H10        -24.8770   -38.4650    33.2720 h1         1 9A9       0.022200
     31 H11        -23.5870   -40.5360    32.7360 hc         1 9A9       0.063700
     32 H12        -23.6500   -41.0090    34.4270 hc         1 9A9       0.063700
     33 H13        -22.4060   -38.9260    35.0460 hc         1 9A9       0.060200
     34 H14        -22.3900   -38.4240    33.3670 hc         1 9A9       0.060200
     35 H15        -26.8580   -37.3830    34.1420 h1         1 9A9       0.055700
     36 H16        -28.5110   -37.7530    34.5710 h1         1 9A9       0.055700
     37 H17        -28.1130   -36.5320    30.3200 ha         1 9A9       0.122500
     38 H18        -29.9820   -38.0100    26.7780 ha         1 9A9       0.116000
     39 H19        -31.1110   -39.7720    28.1000 ha         1 9A9       0.117000
     40 H21        -20.3920   -38.8030    32.3830 hn         1 9A9       0.358500
     41 H22        -19.1170   -41.0440    33.2980 ho         1 9A9       0.477000
@<TRIPOS>BOND
     1     1    12 1   
     2     1    16 1   
     3     1    21 1   
     4     1    22 1   
     5     2     3 1   
     6     2    12 1   
     7     2    23 1   
     8     3     4 1   
     9     3    20 2   
    10     4     6 ar  
    11     4    13 ar  
    12     5    13 ar  
    13     5    14 ar  
    14     5    24 1   
    15     6    15 ar  
    16     6    25 1   
    17     7    16 1   
    18     7    26 1   
    19     7    27 1   
    20     7    28 1   
    21     8     9 1   
    22     8    16 1   
    23     8    29 1   
    24     8    30 1   
    25     9    10 1   
    26     9    31 1   
    27     9    32 1   
    28    10    11 1   
    29    10    33 1   
    30    10    34 1   
    31    11    17 1   
    32    11    18 2   
    33    12    35 1   
    34    12    36 1   
    35    13    37 1   
    36    14    15 ar  
    37    14    38 1   
    38    15    39 1   
    39    17    19 1   
    40    17    40 1   
    41    19    41 1   
@<TRIPOS>SUBSTRUCTURE
     1 9A9         1 TEMP              0 ****  ****    0 ROOT
