@<TRIPOS>MOLECULE
9AA
   33    34     1     0     0
SMALL
bcc


@<TRIPOS>ATOM
      1 C5          -1.1530    -1.0130    -0.9500 ca         1 9AA      -0.061000
      2 C4          -2.3750    -1.5950    -0.6270 ca         1 9AA      -0.256000
      3 C8          -3.0750     0.5370     0.2620 ca         1 9AA      -0.264000
      4 C6          -0.8520     0.3110    -0.6800 ca         1 9AA      -0.169300
      5 C3          -3.3390    -0.8080    -0.0110 ca         1 9AA       0.188100
      6 C7          -1.8490     1.0950    -0.0710 ca         1 9AA       0.204100
      7 C13          2.9120     1.1400    -0.4010 c          1 9AA       0.654500
      8 C16          3.0160    -1.0790     0.1100 cs         1 9AA       0.578400
      9 C12          1.5190     0.7100     0.0990 c5         1 9AA       0.231200
     10 C1          -4.9090    -2.5830     0.0650 c3         1 9AA       0.123700
     11 C10         -2.5240     3.2310     0.7220 c3         1 9AA       0.124700
     12 C11          0.4970     0.8690    -1.0340 c3         1 9AA       0.001900
     13 N15          3.6870     0.0180    -0.3780 ns         1 9AA      -0.567500
     14 N18          1.7790    -0.6790     0.4130 ns         1 9AA      -0.549900
     15 O19          1.0940     1.4450     1.1890 oh         1 9AA      -0.540800
     16 O2          -4.5590    -1.2440     0.3540 os         1 9AA      -0.316900
     17 O9          -1.5520     2.3880     0.1390 os         1 9AA      -0.304900
     18 S17          3.6590    -2.5870     0.2700 s          1 9AA      -0.544400
     19 H1          -0.4090    -1.6250    -1.4480 ha         1 9AA       0.131000
     20 H2          -2.5460    -2.6340    -0.8690 ha         1 9AA       0.142000
     21 H3          -3.8530     1.1230     0.7330 ha         1 9AA       0.152000
     22 H4          -5.9230    -2.7240     0.4310 h1         1 9AA       0.043367
     23 H5          -4.8920    -2.7860    -1.0100 h1         1 9AA       0.043367
     24 H6          -4.2510    -3.2960     0.5680 h1         1 9AA       0.043367
     25 H7          -2.0740     4.2180     0.7890 h1         1 9AA       0.044033
     26 H8          -3.4280     3.2960     0.1110 h1         1 9AA       0.044033
     27 H9          -2.8000     2.9010     1.7260 h1         1 9AA       0.044033
     28 H10          0.8840     0.3470    -1.9120 hc         1 9AA       0.077200
     29 H11          0.4440     1.9260    -1.2970 hc         1 9AA       0.077200
     30 H12          4.6610    -0.0180    -0.6450 hn         1 9AA       0.370500
     31 H13          1.0750    -1.3200     0.7460 hn         1 9AA       0.370500
     32 H14          1.6930     1.3070     1.9330 ho         1 9AA       0.420000
     33 O14          3.2340     2.2470    -0.7410 o          1 9AA      -0.536500
@<TRIPOS>BOND
     1     1     2 ar  
     2     1     4 ar  
     3     1    19 1   
     4     2     5 ar  
     5     2    20 1   
     6     3     5 ar  
     7     3     6 ar  
     8     3    21 1   
     9     4     6 ar  
    10     4    12 1   
    11     5    16 1   
    12     6    17 1   
    13     7     9 1   
    14     7    13 1   
    15     7    33 2   
    16     8    13 1   
    17     8    14 1   
    18     8    18 2   
    19     9    12 1   
    20     9    14 1   
    21     9    15 1   
    22    10    16 1   
    23    10    22 1   
    24    10    23 1   
    25    10    24 1   
    26    11    17 1   
    27    11    25 1   
    28    11    26 1   
    29    11    27 1   
    30    12    28 1   
    31    12    29 1   
    32    13    30 1   
    33    14    31 1   
    34    15    32 1   
@<TRIPOS>SUBSTRUCTURE
     1 9AA         1 TEMP              0 ****  ****    0 ROOT
