@<TRIPOS>MOLECULE
9AA
   33    34     1     0     0
SMALL
No Charge or Current Charge


@<TRIPOS>ATOM
      1 C5          -1.1150    -1.0070    -0.9360 ca         1 9AA      -0.043000
      2 C4          -2.3560    -1.5850    -0.6280 ca         1 9AA      -0.238000
      3 C8          -3.1390     0.5510     0.2220 ca         1 9AA      -0.246000
      4 C6          -0.8710     0.3530    -0.6620 ca         1 9AA      -0.169300
      5 C3          -3.3720    -0.8040    -0.0450 ca         1 9AA       0.188100
      6 C7          -1.8930     1.1400    -0.0840 ca         1 9AA       0.204100
      7 C13          3.0270     1.0990    -0.4950 c          1 9AA       0.512000
      8 C16          3.0250    -1.1270     0.1250 cs         1 9AA       0.444400
      9 C12          1.5970     0.7420     0.0770 c5         1 9AA       0.254400
     10 C1          -4.9550    -2.6940     0.0450 c3         1 9AA       0.146900
     11 C10         -2.6170     3.3480     0.7660 c3         1 9AA       0.147900
     12 C11          0.5020     0.9470    -1.0080 c3         1 9AA       0.001900
     13 N15          3.6810    -0.0810    -0.3900 ns         1 9AA      -0.433500
     14 N18          1.7910    -0.6640     0.4530 ns         1 9AA      -0.482900
     15 O19          1.2880     1.5170     1.2350 oh         1 9AA      -0.603000
     16 O2          -4.6110    -1.3170     0.2780 os         1 9AA      -0.340100
     17 O9          -1.6460     2.4780     0.1600 os         1 9AA      -0.328100
     18 S17          3.6060    -2.6680     0.3440 s          1 9AA      -0.544400
     19 H1          -0.3390    -1.6210    -1.3890 ha         1 9AA       0.113000
     20 H2          -2.5090    -2.6370    -0.8510 ha         1 9AA       0.124000
     21 H3          -3.9420     1.1290     0.6670 ha         1 9AA       0.134000
     22 H4          -5.9830    -2.8900     0.3740 h1         1 9AA       0.043367
     23 H5          -4.8890    -2.9380    -1.0230 h1         1 9AA       0.043367
     24 H6          -4.2870    -3.3630     0.6020 h1         1 9AA       0.043367
     25 H7          -2.2070     4.3600     0.8710 h1         1 9AA       0.044033
     26 H8          -3.5230     3.4110     0.1490 h1         1 9AA       0.044033
     27 H9          -2.8940     2.9880     1.7650 h1         1 9AA       0.044033
     28 H10          0.8510     0.4950    -1.9440 hc         1 9AA       0.077200
     29 H11          0.4160     2.0160    -1.2360 hc         1 9AA       0.077200
     30 H12          4.6400    -0.1660    -0.6960 hn         1 9AA       0.370500
     31 H13          1.0920    -1.2870     0.8410 hn         1 9AA       0.370500
     32 H14          1.9280     1.2490     1.9270 ho         1 9AA       0.459000
     33 O14          3.4940     2.1420    -0.9300 o          1 9AA      -0.461000
@<TRIPOS>BOND
     1     1     2 ar  
     2     1     4 ar  
     3     1    19 1   
     4     2     5 ar  
     5     2    20 1   
     6     3     5 ar  
     7     3     6 ar  
     8     3    21 1   
     9     4     6 ar  
    10     4    12 1   
    11     5    16 1   
    12     6    17 1   
    13     7     9 1   
    14     7    13 1   
    15     7    33 2   
    16     8    13 1   
    17     8    14 1   
    18     8    18 2   
    19     9    12 1   
    20     9    14 1   
    21     9    15 1   
    22    10    16 1   
    23    10    22 1   
    24    10    23 1   
    25    10    24 1   
    26    11    17 1   
    27    11    25 1   
    28    11    26 1   
    29    11    27 1   
    30    12    28 1   
    31    12    29 1   
    32    13    30 1   
    33    14    31 1   
    34    15    32 1   
@<TRIPOS>SUBSTRUCTURE
     1 9AA         1 TEMP              0 ****  ****    0 ROOT
