@<TRIPOS>MOLECULE
9AB
   38    39     1     0     0
SMALL
bcc


@<TRIPOS>ATOM
      1 CBA          0.2640     3.1170    -0.9560 cc         1 9AB       0.428700
      2 CBD         -5.0140     0.9490     0.0900 c3         1 9AB      -0.074400
      3 CBE         -6.3760     0.4880    -0.4140 c3         1 9AB      -0.079400
      4 CBF         -3.9650     1.0310    -1.0120 c3         1 9AB      -0.073400
      5 CBG         -7.4430     0.4640     0.6740 c3         1 9AB      -0.053400
      6 CBI         -2.5850     1.4100    -0.4920 c3         1 9AB      -0.098400
      7 CBJ         -8.7930    -0.0150     0.1690 c3         1 9AB      -0.204400
      8 CBL         -1.6190     1.6780    -1.6370 c3         1 9AB       0.042300
      9 CCH         -9.9320    -0.0440     1.2040 c          1 9AB       0.927600
     10 CCO          3.0880    -0.1450     0.1280 ca         1 9AB      -0.011900
     11 CCP          2.0190    -0.9570    -0.3110 ca         1 9AB       0.016100
     12 CCQ          2.9720     1.2330     0.1030 ca         1 9AB       0.056100
     13 CCR          0.8300    -0.4010    -0.7760 ca         1 9AB       0.011100
     14 CCS          1.7880     1.7990    -0.3600 ca         1 9AB       0.086400
     15 CCT          0.7210     0.9900    -0.7950 ca         1 9AB      -0.051200
     16 NBS          1.4710     3.1180    -0.4730 nd         1 9AB      -0.561100
     17 NDB         -0.2490     1.8830    -1.1820 na         1 9AB      -0.128300
     18 OAI         -9.6690     0.3030     2.3720 o          1 9AB      -0.847300
     19 BR2          4.6740    -0.9250     0.7470 br         1 9AB      -0.044100
     20 BR3          2.2070    -2.8200    -0.2670 br         1 9AB      -0.037100
     21 BR1          4.3300     2.3850     0.6620 br         1 9AB      -0.032100
     22 BR4         -0.5690    -1.5000    -1.3600 br         1 9AB      -0.039100
     23 H1          -0.3140     4.0020    -1.1790 h5         1 9AB       0.069800
     24 H2          -5.1120     1.9310     0.5640 hc         1 9AB       0.038200
     25 H3          -4.6680     0.2670     0.8750 hc         1 9AB       0.038200
     26 H4          -6.7020     1.1430    -1.2300 hc         1 9AB       0.024200
     27 H5          -6.2780    -0.5110    -0.8540 hc         1 9AB       0.024200
     28 H6          -3.9010     0.0690    -1.5310 hc         1 9AB       0.035700
     29 H7          -4.2880     1.7600    -1.7620 hc         1 9AB       0.035700
     30 H8          -7.1060    -0.1780     1.4940 hc         1 9AB       0.039700
     31 H9          -7.5420     1.4660     1.1010 hc         1 9AB       0.039700
     32 H10         -2.6460     2.3050     0.1340 hc         1 9AB       0.055200
     33 H11         -2.1990     0.6100     0.1450 hc         1 9AB       0.055200
     34 H12         -9.1140     0.6090    -0.6750 hc         1 9AB       0.014700
     35 H13         -8.6940    -1.0220    -0.2540 hc         1 9AB       0.014700
     36 H14         -1.6380     0.8840    -2.3800 h1         1 9AB       0.065700
     37 H15         -1.9060     2.5910    -2.1580 h1         1 9AB       0.065700
     38 OXT        -11.0460    -0.4230     0.7810 o          1 9AB      -0.847300
@<TRIPOS>BOND
     1     1    16 2   
     2     1    17 1   
     3     1    23 1   
     4     2     3 1   
     5     2     4 1   
     6     2    24 1   
     7     2    25 1   
     8     3     5 1   
     9     3    26 1   
    10     3    27 1   
    11     4     6 1   
    12     4    28 1   
    13     4    29 1   
    14     5     7 1   
    15     5    30 1   
    16     5    31 1   
    17     6     8 1   
    18     6    32 1   
    19     6    33 1   
    20     7     9 1   
    21     7    34 1   
    22     7    35 1   
    23     8    17 1   
    24     8    36 1   
    25     8    37 1   
    26     9    18 1   
    27     9    38 1   
    28    10    11 ar  
    29    10    12 ar  
    30    10    19 1   
    31    11    13 ar  
    32    11    20 1   
    33    12    14 ar  
    34    12    21 1   
    35    13    15 ar  
    36    13    22 1   
    37    14    15 ar  
    38    14    16 1   
    39    15    17 1   
@<TRIPOS>SUBSTRUCTURE
     1 9AB         1 TEMP              0 ****  ****    0 ROOT
