@<TRIPOS>MOLECULE
9AB
   38    39     1     0     0
SMALL
No Charge or Current Charge


@<TRIPOS>ATOM
      1 CBA          0.3410     3.2420    -1.2530 cc         1 9AB       0.428700
      2 CBD         -5.0190     0.9300     0.0210 c3         1 9AB      -0.074400
      3 CBE         -6.4110     0.4760    -0.4690 c3         1 9AB      -0.079400
      4 CBF         -3.9890     1.0580    -1.1220 c3         1 9AB      -0.073400
      5 CBG         -7.4430     0.3470     0.6740 c3         1 9AB      -0.053400
      6 CBI         -2.5960     1.5080    -0.6300 c3         1 9AB      -0.098400
      7 CBJ         -8.8400    -0.1080     0.1850 c3         1 9AB      -0.204400
      8 CBL         -1.5660     1.6250    -1.7750 c3         1 9AB       0.071600
      9 CCH         -9.8110    -0.2130     1.3750 c          1 9AB       0.717000
     10 CCO          3.0090    -0.0810     0.3360 ca         1 9AB      -0.011900
     11 CCP          1.9010    -0.8950    -0.0130 ca         1 9AB       0.016100
     12 CCQ          2.9590     1.3130     0.1170 ca         1 9AB       0.056100
     13 CCR          0.7350    -0.3220    -0.5830 ca         1 9AB       0.011100
     14 CCS          1.7990     1.8680    -0.4480 ca         1 9AB       0.086400
     15 CCT          0.7210     1.0830    -0.7860 ca         1 9AB      -0.051200
     16 NBS          1.5810     3.2160    -0.7320 nd         1 9AB      -0.561100
     17 NDB         -0.2130     1.9630    -1.2990 na         1 9AB      -0.157600
     18 OAI         -9.8720    -1.2740     1.9780 o          1 9AB      -0.742000
     19 Br2          4.5870    -0.8700     1.1100 br         1 9AB      -0.044100
     20 Br3          1.9900    -2.7970     0.2920 br         1 9AB      -0.037100
     21 Br1          4.4400     2.4530     0.5740 br         1 9AB      -0.032100
     22 Br4         -0.7350    -1.4840    -1.0450 br         1 9AB      -0.039100
     23 H1          -0.1940     4.1200    -1.5950 h5         1 9AB       0.069800
     24 H2          -5.1140     1.8980     0.5300 hc         1 9AB       0.038200
     25 H3          -4.6470     0.2130     0.7630 hc         1 9AB       0.038200
     26 H4          -6.7830     1.1940    -1.2110 hc         1 9AB       0.024200
     27 H5          -6.3150    -0.4910    -0.9780 hc         1 9AB       0.024200
     28 H6          -3.8940     0.0900    -1.6300 hc         1 9AB       0.035700
     29 H7          -4.3590     1.7760    -1.8640 hc         1 9AB       0.035700
     30 H8          -7.0700    -0.3690     1.4160 hc         1 9AB       0.039700
     31 H9          -7.5380     1.3140     1.1840 hc         1 9AB       0.039700
     32 H10         -2.6840     2.4800    -0.1290 hc         1 9AB       0.055200
     33 H11         -2.2330     0.7990     0.1230 hc         1 9AB       0.055200
     34 H12         -9.1780     0.6620    -0.5190 hc         1 9AB       0.014700
     35 H13         -8.6900    -1.0930    -0.2760 hc         1 9AB       0.014700
     36 H14         -1.5310     0.7080    -2.3720 h1         1 9AB       0.065700
     37 H15         -1.8950     2.4200    -2.4560 h1         1 9AB       0.065700
     38 OXT        -10.4430     0.7830     1.6930 o          1 9AB      -0.742000
@<TRIPOS>BOND
     1     1    16 2   
     2     1    17 1   
     3     1    23 1   
     4     2     3 1   
     5     2     4 1   
     6     2    24 1   
     7     2    25 1   
     8     3     5 1   
     9     3    26 1   
    10     3    27 1   
    11     4     6 1   
    12     4    28 1   
    13     4    29 1   
    14     5     7 1   
    15     5    30 1   
    16     5    31 1   
    17     6     8 1   
    18     6    32 1   
    19     6    33 1   
    20     7     9 1   
    21     7    34 1   
    22     7    35 1   
    23     8    17 1   
    24     8    36 1   
    25     8    37 1   
    26     9    18 1   
    27     9    38 1   
    28    10    11 ar  
    29    10    12 ar  
    30    10    19 1   
    31    11    13 ar  
    32    11    20 1   
    33    12    14 ar  
    34    12    21 1   
    35    13    15 ar  
    36    13    22 1   
    37    14    15 ar  
    38    14    16 1   
    39    15    17 1   
@<TRIPOS>SUBSTRUCTURE
     1 9AB         1 TEMP              0 ****  ****    0 ROOT
