@<TRIPOS>MOLECULE
9AC
   25    27     1     0     0
SMALL
abcg2


@<TRIPOS>ATOM
      1 C1          -2.4930    -1.1460    -0.0150 ca         1 9AC      -0.105500
      2 C2          -3.6850    -0.4890    -0.0250 ca         1 9AC      -0.094500
      3 C3          -3.7410     0.9290    -0.0080 ca         1 9AC      -0.103500
      4 C4          -2.5940     1.6540     0.0100 ca         1 9AC      -0.082000
      5 C5           2.0860     2.0790     0.0410 ca         1 9AC      -0.082000
      6 C6           3.3480     1.5790     0.0590 ca         1 9AC      -0.103500
      7 C7           3.5530     0.1750     0.0680 ca         1 9AC      -0.094500
      8 C8           2.5040    -0.6930     0.0490 ca         1 9AC      -0.105500
      9 C9           0.0110    -1.0280     0.0250 ca         1 9AC      -0.137600
     10 N10         -0.2430     1.7690     0.0260 nb         1 9AC      -0.643000
     11 C11          0.9600     1.2060     0.0270 ca         1 9AC       0.276000
     12 C12          1.1600    -0.2150     0.0200 ca         1 9AC      -0.034500
     13 C13         -1.2610    -0.4270     0.0210 ca         1 9AC      -0.034500
     14 C14         -1.3260     1.0040     0.0200 ca         1 9AC       0.276000
     15 C15          0.0870    -2.5090     0.0580 c          1 9AC       0.583500
     16 O16          1.0130    -3.1700    -0.3450 o          1 9AC      -0.509100
     17 H1          -2.5050    -2.2250    -0.0490 ha         1 9AC       0.127500
     18 H2          -4.6060    -1.0560    -0.0520 ha         1 9AC       0.117500
     19 H3          -4.7030     1.4240    -0.0160 ha         1 9AC       0.120500
     20 H4          -2.6060     2.7360     0.0140 ha         1 9AC       0.133500
     21 H5           1.8990     3.1450     0.0420 ha         1 9AC       0.133500
     22 H6           4.2000     2.2450     0.0710 ha         1 9AC       0.120500
     23 H7           4.5630    -0.2120     0.0920 ha         1 9AC       0.117500
     24 H8           2.7010    -1.7520     0.0490 ha         1 9AC       0.127500
     25 H9          -0.7840    -3.0090     0.5030 h4         1 9AC      -0.003800
@<TRIPOS>BOND
     1     1     2 ar  
     2     1    13 ar  
     3     1    17 1   
     4     2     3 ar  
     5     2    18 1   
     6     3     4 ar  
     7     3    19 1   
     8     4    14 ar  
     9     4    20 1   
    10     5     6 ar  
    11     5    11 ar  
    12     5    21 1   
    13     6     7 ar  
    14     6    22 1   
    15     7     8 ar  
    16     7    23 1   
    17     8    12 ar  
    18     8    24 1   
    19     9    12 ar  
    20     9    13 ar  
    21     9    15 1   
    22    10    11 ar  
    23    10    14 ar  
    24    11    12 ar  
    25    13    14 ar  
    26    15    16 2   
    27    15    25 1   
@<TRIPOS>SUBSTRUCTURE
     1 9AC         1 TEMP              0 ****  ****    0 ROOT
