@<TRIPOS>MOLECULE
9AC
   25    27     1     0     0
SMALL
No Charge or Current Charge


@<TRIPOS>ATOM
      1 C1          -2.4710    -1.1410    -0.0050 ca         1 9AC      -0.105500
      2 C2          -3.7220    -0.5030    -0.0210 ca         1 9AC      -0.094500
      3 C3          -3.7960     0.8950    -0.0230 ca         1 9AC      -0.103500
      4 C4          -2.6160     1.6550    -0.0130 ca         1 9AC      -0.082000
      5 C5           2.1070     2.0820     0.0310 ca         1 9AC      -0.082000
      6 C6           3.4040     1.5480     0.0710 ca         1 9AC      -0.103500
      7 C7           3.5820     0.1600     0.1080 ca         1 9AC      -0.094500
      8 C8           2.4670    -0.6930     0.0970 ca         1 9AC      -0.105500
      9 C9           0.0030    -1.0040     0.0280 ca         1 9AC      -0.137600
     10 N10         -0.2490     1.8170     0.0020 nb         1 9AC      -0.643000
     11 C11          0.9740     1.2450     0.0210 ca         1 9AC       0.276000
     12 C12          1.1520    -0.1650     0.0410 ca         1 9AC      -0.034500
     13 C13         -1.2740    -0.3820     0.0150 ca         1 9AC      -0.034500
     14 C14         -1.3510     1.0370     0.0030 ca         1 9AC       0.276000
     15 C15          0.1100    -2.5100     0.0330 c          1 9AC       0.583500
     16 O16          0.8100    -3.1480    -0.7480 o          1 9AC      -0.509100
     17 H1          -2.4580    -2.2270    -0.0140 ha         1 9AC       0.127500
     18 H2          -4.6340    -1.0960    -0.0350 ha         1 9AC       0.117500
     19 H3          -4.7640     1.3910    -0.0370 ha         1 9AC       0.120500
     20 H4          -2.6790     2.7400    -0.0210 ha         1 9AC       0.133500
     21 H5           1.9730     3.1600     0.0130 ha         1 9AC       0.133500
     22 H6           4.2670     2.2110     0.0800 ha         1 9AC       0.120500
     23 H7           4.5860    -0.2580     0.1490 ha         1 9AC       0.117500
     24 H8           2.6510    -1.7620     0.1420 ha         1 9AC       0.127500
     25 H9          -0.5340    -3.0390     0.7690 h4         1 9AC      -0.003800
@<TRIPOS>BOND
     1     1     2 ar  
     2     1    13 ar  
     3     1    17 1   
     4     2     3 ar  
     5     2    18 1   
     6     3     4 ar  
     7     3    19 1   
     8     4    14 ar  
     9     4    20 1   
    10     5     6 ar  
    11     5    11 ar  
    12     5    21 1   
    13     6     7 ar  
    14     6    22 1   
    15     7     8 ar  
    16     7    23 1   
    17     8    12 ar  
    18     8    24 1   
    19     9    12 ar  
    20     9    13 ar  
    21     9    15 1   
    22    10    11 ar  
    23    10    14 ar  
    24    11    12 ar  
    25    13    14 ar  
    26    15    16 2   
    27    15    25 1   
@<TRIPOS>SUBSTRUCTURE
     1 9AC         1 TEMP              0 ****  ****    0 ROOT
