@<TRIPOS>MOLECULE
9AE
   37    36     1     0     0
SMALL
No Charge or Current Charge


@<TRIPOS>ATOM
      1 N1          -2.1380     0.1340     0.6370 n7         1 9AE      -0.881400
      2 C2          -1.5980     1.3470    -0.0080 c3         1 9AE       0.184500
      3 C3          -0.0980     1.5300     0.3450 c3         1 9AE      -0.097400
      4 C4           0.8370     0.4070    -0.1700 c3         1 9AE      -0.077400
      5 C6           3.3160    -0.3600    -0.4700 c3         1 9AE      -0.059700
      6 C7           4.7810     0.0920    -0.2770 c3         1 9AE      -0.087100
      7 C8           3.1030    -1.7820     0.1040 c3         1 9AE      -0.087100
      8 C9          -2.4410     2.5570     0.4430 c3         1 9AE      -0.082100
      9 C10         -2.3110    -1.0550    -0.2180 c3         1 9AE       0.182500
     10 C12         -2.4030    -2.3020     0.6820 c3         1 9AE      -0.090100
     11 C11         -3.5590    -0.8980    -1.1140 c3         1 9AE      -0.090100
     12 C5           2.3310     0.6870     0.1190 c3         1 9AE      -0.072400
     13 H1          -1.4980    -0.1110     1.3980 hn         1 9AE       0.414000
     14 H3          -1.6880     1.2800    -1.1010 h1         1 9AE       0.028700
     15 H4           0.2400     2.4830    -0.0810 hc         1 9AE       0.046700
     16 H5           0.0120     1.6200     1.4330 hc         1 9AE       0.046700
     17 H6           0.5510    -0.5390     0.3020 hc         1 9AE       0.036700
     18 H7           0.6940     0.2880    -1.2520 hc         1 9AE       0.036700
     19 H8           3.1360    -0.4130    -1.5520 hc         1 9AE       0.043700
     20 H9           5.0310     0.1650     0.7880 hc         1 9AE       0.032033
     21 H10          5.4730    -0.6190    -0.7450 hc         1 9AE       0.032033
     22 H11          4.9490     1.0740    -0.7370 hc         1 9AE       0.032033
     23 H12          3.1930    -1.7800     1.1970 hc         1 9AE       0.032033
     24 H13          2.1150    -2.1740    -0.1620 hc         1 9AE       0.032033
     25 H14          3.8500    -2.4770    -0.2990 hc         1 9AE       0.032033
     26 H15         -2.3830     2.6940     1.5300 hc         1 9AE       0.035367
     27 H16         -2.0840     3.4750    -0.0380 hc         1 9AE       0.035367
     28 H17         -3.4930     2.4180     0.1680 hc         1 9AE       0.035367
     29 H18         -1.4340    -1.1830    -0.8670 h1         1 9AE       0.011700
     30 H19         -3.2650    -2.2380     1.3560 hc         1 9AE       0.036700
     31 H20         -2.5110    -3.2070     0.0720 hc         1 9AE       0.036700
     32 H21         -1.4950    -2.4110     1.2880 hc         1 9AE       0.036700
     33 H22         -3.4590    -0.0400    -1.7880 hc         1 9AE       0.036700
     34 H23         -3.7010    -1.7930    -1.7310 hc         1 9AE       0.036700
     35 H24         -4.4610    -0.7550    -0.5060 hc         1 9AE       0.036700
     36 H25          2.5830     1.6730    -0.2910 hc         1 9AE       0.038200
     37 H26          2.4800     0.7540     1.2050 hc         1 9AE       0.038200
@<TRIPOS>BOND
     1     1     2 1   
     2     1     9 1   
     3     1    13 1   
     4     2     3 1   
     5     2     8 1   
     6     2    14 1   
     7     3     4 1   
     8     3    15 1   
     9     3    16 1   
    10     4    12 1   
    11     4    17 1   
    12     4    18 1   
    13     5     6 1   
    14     5     7 1   
    15     5    12 1   
    16     5    19 1   
    17     6    20 1   
    18     6    21 1   
    19     6    22 1   
    20     7    23 1   
    21     7    24 1   
    22     7    25 1   
    23     8    26 1   
    24     8    27 1   
    25     8    28 1   
    26     9    10 1   
    27     9    11 1   
    28     9    29 1   
    29    10    30 1   
    30    10    31 1   
    31    10    32 1   
    32    11    33 1   
    33    11    34 1   
    34    11    35 1   
    35    12    36 1   
    36    12    37 1   
@<TRIPOS>SUBSTRUCTURE
     1 9AE         1 TEMP              0 ****  ****    0 ROOT
