@<TRIPOS>MOLECULE
9AE
   37    36     1     0     0
SMALL
abcg2


@<TRIPOS>ATOM
      1 N1          -1.9170    -0.1100     0.5880 n7         1 9AE      -0.881400
      2 C2          -1.4490     1.0680    -0.1430 c3         1 9AE       0.184500
      3 C3           0.0020     1.3880     0.2200 c3         1 9AE      -0.097400
      4 C4           1.0210     0.3680    -0.2780 c3         1 9AE      -0.077400
      5 C6           3.5340    -0.1850    -0.4200 c3         1 9AE      -0.059700
      6 C7           4.9100     0.3170     0.0050 c3         1 9AE      -0.087100
      7 C8           3.3530    -1.6450    -0.0120 c3         1 9AE      -0.087100
      8 C9          -2.3380     2.2730     0.1470 c3         1 9AE      -0.082100
      9 C10         -2.6240    -1.1130    -0.1990 c3         1 9AE       0.182500
     10 C12         -2.8320    -2.3520     0.6610 c3         1 9AE      -0.090100
     11 C11         -3.9600    -0.5850    -0.7030 c3         1 9AE      -0.090100
     12 C5           2.4410     0.7150     0.1570 c3         1 9AE      -0.072400
     13 H1          -1.1260    -0.5650     1.0260 hn         1 9AE       0.414000
     14 H3          -1.4790     0.8730    -1.2270 h1         1 9AE       0.028700
     15 H4           0.2560     2.3690    -0.1910 hc         1 9AE       0.046700
     16 H5           0.0780     1.4870     1.3100 hc         1 9AE       0.046700
     17 H6           0.7610    -0.6320     0.0810 hc         1 9AE       0.036700
     18 H7           0.9730     0.3190    -1.3720 hc         1 9AE       0.036700
     19 H8           3.4730    -0.1270    -1.5140 hc         1 9AE       0.043700
     20 H9           5.0280     0.2550     1.0900 hc         1 9AE       0.032033
     21 H10          5.7090    -0.2730    -0.4480 hc         1 9AE       0.032033
     22 H11          5.0620     1.3590    -0.2830 hc         1 9AE       0.032033
     23 H12          3.3600    -1.7440     1.0770 hc         1 9AE       0.032033
     24 H13          2.4140    -2.0640    -0.3760 hc         1 9AE       0.032033
     25 H14          4.1610    -2.2660    -0.4040 hc         1 9AE       0.032033
     26 H15         -2.2920     2.5360     1.2060 hc         1 9AE       0.035367
     27 H16         -2.0200     3.1430    -0.4300 hc         1 9AE       0.035367
     28 H17         -3.3810     2.0740    -0.0990 hc         1 9AE       0.035367
     29 H18         -2.0330    -1.4090    -1.0830 h1         1 9AE       0.011700
     30 H19         -3.4370    -2.1140     1.5390 hc         1 9AE       0.036700
     31 H20         -3.3450    -3.1330     0.0990 hc         1 9AE       0.036700
     32 H21         -1.8810    -2.7620     1.0080 hc         1 9AE       0.036700
     33 H22         -3.8370     0.2590    -1.3830 hc         1 9AE       0.036700
     34 H23         -4.4950    -1.3650    -1.2460 hc         1 9AE       0.036700
     35 H24         -4.5850    -0.2580     0.1310 hc         1 9AE       0.036700
     36 H25          2.6530     1.7510    -0.1290 hc         1 9AE       0.038200
     37 H26          2.5000     0.6860     1.2520 hc         1 9AE       0.038200
@<TRIPOS>BOND
     1     1     2 1   
     2     1     9 1   
     3     1    13 1   
     4     2     3 1   
     5     2     8 1   
     6     2    14 1   
     7     3     4 1   
     8     3    15 1   
     9     3    16 1   
    10     4    12 1   
    11     4    17 1   
    12     4    18 1   
    13     5     6 1   
    14     5     7 1   
    15     5    12 1   
    16     5    19 1   
    17     6    20 1   
    18     6    21 1   
    19     6    22 1   
    20     7    23 1   
    21     7    24 1   
    22     7    25 1   
    23     8    26 1   
    24     8    27 1   
    25     8    28 1   
    26     9    10 1   
    27     9    11 1   
    28     9    29 1   
    29    10    30 1   
    30    10    31 1   
    31    10    32 1   
    32    11    33 1   
    33    11    34 1   
    34    11    35 1   
    35    12    36 1   
    36    12    37 1   
@<TRIPOS>SUBSTRUCTURE
     1 9AE         1 TEMP              0 ****  ****    0 ROOT
