@<TRIPOS>MOLECULE
9AF
   85    88     1     0     0
SMALL
No Charge or Current Charge


@<TRIPOS>ATOM
      1 C1           5.9680     2.3840    -1.5360 c          1 9AF       0.617800
      2 C10          6.0310    -0.0500    -0.7370 c6         1 9AF       0.117000
      3 C11          5.1810     0.1580     0.5280 ca         1 9AF      -0.049300
      4 C12          5.8010     0.4200     1.7650 ca         1 9AF      -0.130000
      5 C13          5.0270     0.6110     2.9190 ca         1 9AF      -0.099000
      6 C2           6.8210     1.2400    -1.0410 ce         1 9AF      -0.252900
      7 C3           8.1630     1.2850    -0.8310 c2         1 9AF       0.190800
      8 C4           9.1260     2.4520    -0.9910 c3         1 9AF      -0.061400
      9 C5           8.2590    -1.1600    -0.3630 c2         1 9AF       0.190800
     10 C6           9.3100    -2.2280    -0.0960 c3         1 9AF      -0.061400
     11 C7           6.9210    -1.2980    -0.5550 ce         1 9AF      -0.252900
     12 C8           6.1650    -2.6050    -0.5810 c          1 9AF       0.617800
     13 C9           6.3310    -5.0050    -0.4030 c3         1 9AF       0.155900
     14 N2          -0.6990     0.1620     1.7770 ns         1 9AF      -0.525900
     15 O1           4.7660     2.2880    -1.7450 o          1 9AF      -0.495000
     16 O2           4.9620    -2.6840    -0.7940 o          1 9AF      -0.495000
     17 O3           6.9530    -3.7070    -0.3830 os         1 9AF      -0.454600
     18 O4           0.6480     0.5630     3.5640 o          1 9AF      -0.630100
     19 C16          0.5300     0.3270     2.3700 c          1 9AF       0.658100
     20 C15          2.9860     0.2800     1.6190 ca         1 9AF      -0.014000
     21 C14          3.6250     0.5410     2.8500 ca         1 9AF      -0.120000
     22 C32          3.7740     0.0910     0.4680 ca         1 9AF      -0.130000
     23 N            8.8030     0.1180    -0.4300 nu         1 9AF      -0.691000
     24 O            6.6670     3.5380    -1.7690 os         1 9AF      -0.454600
     25 C            5.9490     4.6870    -2.2570 c3         1 9AF       0.155900
     26 C17         -1.9730     0.2480     2.4910 c3         1 9AF       0.116000
     27 C18         -3.1700     0.0570     1.5430 c3         1 9AF      -0.097400
     28 C19         -4.5240     0.1440     2.2810 c3         1 9AF       0.171800
     29 N3          -5.7080    -0.2010     1.4550 n3         1 9AF      -0.718600
     30 C31         -6.9370    -0.3310     2.2880 c6         1 9AF       0.166300
     31 C30         -8.1480    -0.8170     1.4560 c6         1 9AF      -0.069900
     32 C22         -8.4180     0.1310     0.2600 c6         1 9AF      -0.019400
     33 C21         -7.1210     0.2790    -0.5740 c6         1 9AF      -0.069900
     34 C20         -5.9330     0.7310     0.3100 c6         1 9AF       0.166300
     35 C23         -9.6100    -0.3320    -0.5930 ca         1 9AF      -0.038300
     36 C29        -10.7450     0.4930    -0.7240 ca         1 9AF      -0.143000
     37 C27        -11.8440     0.0880    -1.4990 ca         1 9AF       0.140100
     38 O5         -12.9230     0.9450    -1.5850 os         1 9AF      -0.344100
     39 C28        -14.0970     0.6250    -2.3530 c3         1 9AF       0.149900
     40 C26        -11.8120    -1.1610    -2.1560 ca         1 9AF      -0.199000
     41 C25        -10.6850    -1.9890    -2.0300 ca         1 9AF      -0.074000
     42 C24         -9.5900    -1.5770    -1.2530 ca         1 9AF      -0.143000
     43 H1           5.3690    -0.2400    -1.5950 hc         1 9AF       0.092700
     44 H2           6.8850     0.4760     1.8300 ha         1 9AF       0.106000
     45 H3           5.5140     0.8120     3.8710 ha         1 9AF       0.107000
     46 H5           8.8300     3.2950    -0.3560 hc         1 9AF       0.059867
     47 H6          10.1560     2.1950    -0.7160 hc         1 9AF       0.059867
     48 H7           9.1520     2.7990    -2.0310 hc         1 9AF       0.059867
     49 H9          10.3130    -1.8100     0.0510 hc         1 9AF       0.059867
     50 H10          9.0700    -2.7960     0.8100 hc         1 9AF       0.059867
     51 H11          9.3780    -2.9300    -0.9350 hc         1 9AF       0.059867
     52 H13          7.0780    -5.7890    -0.2290 h1         1 9AF       0.046200
     53 H14          5.5660    -5.0850     0.3810 h1         1 9AF       0.046200
     54 H15          5.8560    -5.1980    -1.3740 h1         1 9AF       0.046200
     55 H16          1.2800    -0.0010     0.5210 hn         1 9AF       0.144000
     56 H17         -0.7120    -0.0320     0.7840 hn         1 9AF       0.308500
     57 H18          3.0580     0.6930     3.7630 ha         1 9AF       0.139000
     58 H19          3.2890    -0.1110    -0.4850 ha         1 9AF       0.123000
     59 H20          5.4750     4.4710    -3.2240 h1         1 9AF       0.046200
     60 H21          5.1690     4.9910    -1.5470 h1         1 9AF       0.046200
     61 H22          6.6320     5.5340    -2.3950 h1         1 9AF       0.046200
     62 H23         -1.9940    -0.5240     3.2720 h1         1 9AF       0.050200
     63 H24         -2.0420     1.2310     2.9760 h1         1 9AF       0.050200
     64 H25         -3.1220     0.8220     0.7600 hc         1 9AF       0.051200
     65 H26         -3.0900    -0.9220     1.0540 hc         1 9AF       0.051200
     66 H27         -4.4750    -0.5440     3.1360 h1         1 9AF       0.032700
     67 H28         -4.6360     1.1570     2.6940 h1         1 9AF       0.032700
     68 H30         -6.7680    -1.0460     3.1060 h1         1 9AF       0.030700
     69 H31         -7.1850     0.6350     2.7510 h1         1 9AF       0.030700
     70 H32         -7.9550    -1.8380     1.1000 hc         1 9AF       0.050950
     71 H33         -9.0380    -0.8720     2.0980 hc         1 9AF       0.050950
     72 H34         -8.6550     1.1210     0.6750 hc         1 9AF       0.049700
     73 H35         -6.8660    -0.6740    -1.0570 hc         1 9AF       0.050950
     74 H36         -7.2770     1.0070    -1.3810 hc         1 9AF       0.050950
     75 H37         -6.1280     1.7480     0.6810 h1         1 9AF       0.030700
     76 H38         -5.0420     0.7870    -0.3310 h1         1 9AF       0.030700
     77 H39        -10.7800     1.4570    -0.2230 ha         1 9AF       0.124000
     78 H40        -14.8290     1.4400    -2.2850 h1         1 9AF       0.039367
     79 H41        -13.8450     0.4820    -3.4110 h1         1 9AF       0.039367
     80 H42        -14.5720    -0.2900    -1.9770 h1         1 9AF       0.039367
     81 H43        -12.6460    -1.5030    -2.7620 ha         1 9AF       0.116000
     82 H44        -10.6590    -2.9530    -2.5350 ha         1 9AF       0.110000
     83 H45         -8.7250    -2.2310    -1.1660 ha         1 9AF       0.117000
     84 H4           9.8050     0.1910    -0.2520 hn         1 9AF       0.496000
     85 N1           1.5740     0.1940     1.4680 ns         1 9AF      -0.164000
@<TRIPOS>BOND
     1     1     6 1   
     2     1    15 2   
     3     1    24 1   
     4     2     3 1   
     5     2     6 1   
     6     2    11 1   
     7     2    43 1   
     8     3     4 ar  
     9     3    22 ar  
    10     4     5 ar  
    11     4    44 1   
    12     5    21 ar  
    13     5    45 1   
    14     6     7 2   
    15     7     8 1   
    16     7    23 1   
    17     8    46 1   
    18     8    47 1   
    19     8    48 1   
    20     9    10 1   
    21     9    11 2   
    22     9    23 1   
    23    10    49 1   
    24    10    50 1   
    25    10    51 1   
    26    11    12 1   
    27    12    16 2   
    28    12    17 1   
    29    13    17 1   
    30    13    52 1   
    31    13    53 1   
    32    13    54 1   
    33    14    19 1   
    34    14    26 1   
    35    14    56 1   
    36    18    19 2   
    37    19    85 1   
    38    20    21 ar  
    39    20    22 ar  
    40    20    85 1   
    41    21    57 1   
    42    22    58 1   
    43    23    84 1   
    44    24    25 1   
    45    25    59 1   
    46    25    60 1   
    47    25    61 1   
    48    26    27 1   
    49    26    62 1   
    50    26    63 1   
    51    27    28 1   
    52    27    64 1   
    53    27    65 1   
    54    28    29 1   
    55    28    66 1   
    56    28    67 1   
    57    29    30 1   
    58    29    34 1   
    59    30    31 1   
    60    30    68 1   
    61    30    69 1   
    62    31    32 1   
    63    31    70 1   
    64    31    71 1   
    65    32    33 1   
    66    32    35 1   
    67    32    72 1   
    68    33    34 1   
    69    33    73 1   
    70    33    74 1   
    71    34    75 1   
    72    34    76 1   
    73    35    36 ar  
    74    35    42 ar  
    75    36    37 ar  
    76    36    77 1   
    77    37    38 1   
    78    37    40 ar  
    79    38    39 1   
    80    39    78 1   
    81    39    79 1   
    82    39    80 1   
    83    40    41 ar  
    84    40    81 1   
    85    41    42 ar  
    86    41    82 1   
    87    42    83 1   
    88    55    85 1   
@<TRIPOS>SUBSTRUCTURE
     1 9AF         1 TEMP              0 ****  ****    0 ROOT
