@<TRIPOS>MOLECULE
9AF
   85    88     1     0     0
SMALL
abcg2


@<TRIPOS>ATOM
      1 C1           6.3170     2.5420    -1.1370 c          1 9AF       0.617800
      2 C10          6.0330     0.1040    -0.6720 c6         1 9AF       0.117000
      3 C11          5.1120     0.1340     0.5370 ca         1 9AF      -0.049300
      4 C12          5.6270     0.2780     1.8240 ca         1 9AF      -0.130000
      5 C13          4.7680     0.2880     2.9120 ca         1 9AF      -0.099000
      6 C2           6.9540     1.3040    -0.6890 ce         1 9AF      -0.252900
      7 C3           8.2330     1.1920    -0.2570 c2         1 9AF       0.190800
      8 C4           9.2490     2.2800    -0.0710 c3         1 9AF      -0.061400
      9 C5           8.0970    -1.2330    -0.2780 c2         1 9AF       0.190800
     10 C6           8.9910    -2.4280    -0.1130 c3         1 9AF      -0.061400
     11 C7           6.8150    -1.1930    -0.7190 ce         1 9AF      -0.252900
     12 C8           6.0670    -2.3400    -1.2340 c          1 9AF       0.617800
     13 C9           6.0590    -4.6420    -1.7310 c3         1 9AF       0.155900
     14 N2          -0.7560     0.1240     1.4010 ns         1 9AF      -0.525900
     15 O1           5.1510     2.5990    -1.4690 o          1 9AF      -0.495000
     16 O2           4.9310    -2.2560    -1.6530 o          1 9AF      -0.495000
     17 O3           6.7300    -3.4940    -1.2250 os         1 9AF      -0.454600
     18 O4           0.6070     1.0060     2.9740 o          1 9AF      -0.630100
     19 C16          0.4610     0.3840     1.9300 c          1 9AF       0.658100
     20 C15          2.8690     0.0300     1.4660 ca         1 9AF      -0.014000
     21 C14          3.3950     0.1590     2.7520 ca         1 9AF      -0.120000
     22 C32          3.7400     0.0180     0.3750 ca         1 9AF      -0.130000
     23 N            8.7130    -0.0540     0.0520 nu         1 9AF      -0.691000
     24 O            7.1140     3.6060    -1.1670 os         1 9AF      -0.454600
     25 C            6.5470     4.8410    -1.5910 c3         1 9AF       0.155900
     26 C17         -1.9610     0.7000     1.9590 c3         1 9AF       0.116000
     27 C18         -3.1920     0.1240     1.2780 c3         1 9AF      -0.097400
     28 C19         -4.4600     0.7400     1.8550 c3         1 9AF       0.171800
     29 N3          -5.6800     0.1750     1.3130 n3         1 9AF      -0.718600
     30 C31         -6.8250     0.5180     2.1390 c6         1 9AF       0.166300
     31 C30         -8.0920    -0.1670     1.6500 c6         1 9AF      -0.069900
     32 C22         -8.3790     0.1960     0.1930 c6         1 9AF      -0.019400
     33 C21         -7.1370    -0.1140    -0.6450 c6         1 9AF      -0.069900
     34 C20         -5.9090     0.5700    -0.0660 c6         1 9AF       0.166300
     35 C23         -9.6180    -0.4740    -0.3420 ca         1 9AF      -0.038300
     36 C29        -10.6680     0.2920    -0.8250 ca         1 9AF      -0.143000
     37 C27        -11.8270    -0.3030    -1.3310 ca         1 9AF       0.140100
     38 O5         -12.7810     0.5420    -1.7710 os         1 9AF      -0.344100
     39 C28        -13.9680    -0.0040    -2.3090 c3         1 9AF       0.149900
     40 C26        -11.9350    -1.6900    -1.3540 ca         1 9AF      -0.199000
     41 C25        -10.8800    -2.4560    -0.8690 ca         1 9AF      -0.074000
     42 C24         -9.7330    -1.8670    -0.3680 ca         1 9AF      -0.143000
     43 H1           5.3990     0.1510    -1.5580 hc         1 9AF       0.092700
     44 H2           6.6930     0.3810     1.9830 ha         1 9AF       0.106000
     45 H3           5.1700     0.3920     3.9120 ha         1 9AF       0.107000
     46 H5           8.8680     3.0880     0.5480 hc         1 9AF       0.059867
     47 H6          10.1440     1.8880     0.4100 hc         1 9AF       0.059867
     48 H7           9.5480     2.7080    -1.0260 hc         1 9AF       0.059867
     49 H9           9.9250    -2.1360     0.3650 hc         1 9AF       0.059867
     50 H10          8.5290    -3.1970     0.5000 hc         1 9AF       0.059867
     51 H11          9.2370    -2.8730    -1.0750 hc         1 9AF       0.059867
     52 H13          6.7690    -5.4610    -1.6490 h1         1 9AF       0.046200
     53 H14          5.1690    -4.8810    -1.1490 h1         1 9AF       0.046200
     54 H15          5.7770    -4.5170    -2.7770 h1         1 9AF       0.046200
     55 H16          1.2920    -0.4920     0.2850 hn         1 9AF       0.144000
     56 H17         -0.8250    -0.3050     0.4920 hn         1 9AF       0.308500
     57 H18          2.7540     0.1520     3.6180 ha         1 9AF       0.139000
     58 H19          3.3370    -0.0850    -0.6260 ha         1 9AF       0.123000
     59 H20          6.1910     4.7880    -2.6200 h1         1 9AF       0.046200
     60 H21          5.7250     5.1520    -0.9460 h1         1 9AF       0.046200
     61 H22          7.3480     5.5720    -1.5270 h1         1 9AF       0.046200
     62 H23         -2.0030     0.4900     3.0300 h1         1 9AF       0.050200
     63 H24         -1.9580     1.7900     1.8510 h1         1 9AF       0.050200
     64 H25         -3.1240     0.3100     0.2020 hc         1 9AF       0.051200
     65 H26         -3.2230    -0.9600     1.4160 hc         1 9AF       0.051200
     66 H27         -4.4610     0.5640     2.9350 h1         1 9AF       0.032700
     67 H28         -4.4260     1.8370     1.7250 h1         1 9AF       0.032700
     68 H30         -6.6200     0.2110     3.1670 h1         1 9AF       0.030700
     69 H31         -6.9910     1.6100     2.1630 h1         1 9AF       0.030700
     70 H32         -7.9740    -1.2500     1.7490 hc         1 9AF       0.050950
     71 H33         -8.9300     0.1250     2.2870 hc         1 9AF       0.050950
     72 H34         -8.5390     1.2800     0.1500 hc         1 9AF       0.049700
     73 H35         -6.9670    -1.1950    -0.6760 hc         1 9AF       0.050950
     74 H36         -7.2840     0.2160    -1.6760 hc         1 9AF       0.050950
     75 H37         -6.0320     1.6660    -0.1500 h1         1 9AF       0.030700
     76 H38         -5.0380     0.3080    -0.6690 h1         1 9AF       0.030700
     77 H39        -10.5970     1.3740    -0.8140 ha         1 9AF       0.124000
     78 H40        -14.5920     0.8380    -2.5990 h1         1 9AF       0.039367
     79 H41        -13.7730    -0.6170    -3.1930 h1         1 9AF       0.039367
     80 H42        -14.5110    -0.6070    -1.5760 h1         1 9AF       0.039367
     81 H43        -12.8160    -2.1860    -1.7380 ha         1 9AF       0.116000
     82 H44        -10.9660    -3.5350    -0.8870 ha         1 9AF       0.110000
     83 H45         -8.9290    -2.4900     0.0040 ha         1 9AF       0.117000
     84 H4           9.6610    -0.1100     0.3890 hn         1 9AF       0.496000
     85 N1           1.5060    -0.1340     1.2030 ns         1 9AF      -0.164000
@<TRIPOS>BOND
     1     1     6 1   
     2     1    15 2   
     3     1    24 1   
     4     2     3 1   
     5     2     6 1   
     6     2    11 1   
     7     2    43 1   
     8     3     4 ar  
     9     3    22 ar  
    10     4     5 ar  
    11     4    44 1   
    12     5    21 ar  
    13     5    45 1   
    14     6     7 2   
    15     7     8 1   
    16     7    23 1   
    17     8    46 1   
    18     8    47 1   
    19     8    48 1   
    20     9    10 1   
    21     9    11 2   
    22     9    23 1   
    23    10    49 1   
    24    10    50 1   
    25    10    51 1   
    26    11    12 1   
    27    12    16 2   
    28    12    17 1   
    29    13    17 1   
    30    13    52 1   
    31    13    53 1   
    32    13    54 1   
    33    14    19 1   
    34    14    26 1   
    35    14    56 1   
    36    18    19 2   
    37    19    85 1   
    38    20    21 ar  
    39    20    22 ar  
    40    20    85 1   
    41    21    57 1   
    42    22    58 1   
    43    23    84 1   
    44    24    25 1   
    45    25    59 1   
    46    25    60 1   
    47    25    61 1   
    48    26    27 1   
    49    26    62 1   
    50    26    63 1   
    51    27    28 1   
    52    27    64 1   
    53    27    65 1   
    54    28    29 1   
    55    28    66 1   
    56    28    67 1   
    57    29    30 1   
    58    29    34 1   
    59    30    31 1   
    60    30    68 1   
    61    30    69 1   
    62    31    32 1   
    63    31    70 1   
    64    31    71 1   
    65    32    33 1   
    66    32    35 1   
    67    32    72 1   
    68    33    34 1   
    69    33    73 1   
    70    33    74 1   
    71    34    75 1   
    72    34    76 1   
    73    35    36 ar  
    74    35    42 ar  
    75    36    37 ar  
    76    36    77 1   
    77    37    38 1   
    78    37    40 ar  
    79    38    39 1   
    80    39    78 1   
    81    39    79 1   
    82    39    80 1   
    83    40    41 ar  
    84    40    81 1   
    85    41    42 ar  
    86    41    82 1   
    87    42    83 1   
    88    55    85 1   
@<TRIPOS>SUBSTRUCTURE
     1 9AF         1 TEMP              0 ****  ****    0 ROOT
