@<TRIPOS>MOLECULE
9AG
   31    32     1     0     0
SMALL
abcg2


@<TRIPOS>ATOM
      1 C13          4.4150    -0.9720    -1.0120 ca         1 9AG      -0.098500
      2 C15          4.0480    -0.3850     1.2880 ca         1 9AG      -0.098500
      3 C01         -6.0440    -0.8750    -0.0910 c3         1 9AG       0.142100
      4 N02         -4.6820    -0.4920    -0.4050 n7         1 9AG      -0.854400
      5 C04         -2.4570     0.0370     0.4220 ca         1 9AG      -0.120300
      6 C05         -2.1500     1.2860    -0.1160 ca         1 9AG      -0.065500
      7 C06         -0.8590     1.6070    -0.4940 ca         1 9AG      -0.161000
      8 C07         -1.4280    -0.8860     0.5560 ca         1 9AG      -0.065500
      9 C08         -0.1250    -0.5870     0.1750 ca         1 9AG      -0.161000
     10 C09          0.1570     0.6650    -0.3520 ca         1 9AG       0.137100
     11 O10          1.3950     1.0420    -0.7840 os         1 9AG      -0.257200
     12 C11          2.5010     0.3310    -0.3950 ca         1 9AG       0.104100
     13 C12          3.2520    -0.3030    -1.3730 ca         1 9AG      -0.124500
     14 C14          4.8140    -1.0200     0.3170 ca         1 9AG      -0.117000
     15 C16          2.8910     0.2980     0.9380 ca         1 9AG      -0.124500
     16 H1           5.0060    -1.4610    -1.7750 ha         1 9AG       0.115500
     17 H2           4.3510    -0.4200     2.3270 ha         1 9AG       0.115500
     18 H3          -6.5510    -0.0560     0.4240 h1         1 9AG       0.029033
     19 H4          -6.5940    -1.0750    -1.0110 h1         1 9AG       0.029033
     20 H5          -6.1250    -1.7650     0.5500 h1         1 9AG       0.029033
     21 H6          -4.2580    -1.2130    -0.9750 hn         1 9AG       0.409000
     22 H8          -4.3160     0.4920     1.3820 h1         1 9AG       0.034700
     23 H9          -3.8700    -1.2060     1.4360 h1         1 9AG       0.034700
     24 H10         -2.9320     2.0270    -0.2310 ha         1 9AG       0.116000
     25 H11         -0.6320     2.5830    -0.9070 ha         1 9AG       0.127500
     26 H12         -1.6420    -1.8680     0.9600 ha         1 9AG       0.116000
     27 H13          0.6460    -1.3380     0.2840 ha         1 9AG       0.127500
     28 H14          2.9330    -0.2670    -2.4080 ha         1 9AG       0.128500
     29 H15          5.7170    -1.5470     0.5950 ha         1 9AG       0.116000
     30 H16          2.3060     0.8060     1.6940 ha         1 9AG       0.128500
     31 C03         -3.8720    -0.3150     0.7890 c3         1 9AG       0.206100
@<TRIPOS>BOND
     1     1    13 ar  
     2     1    14 ar  
     3     1    16 1   
     4     2    14 ar  
     5     2    15 ar  
     6     2    17 1   
     7     3     4 1   
     8     3    18 1   
     9     3    19 1   
    10     3    20 1   
    11     4    21 1   
    12     4    31 1   
    13     5     6 ar  
    14     5     8 ar  
    15     5    31 1   
    16     6     7 ar  
    17     6    24 1   
    18     7    10 ar  
    19     7    25 1   
    20     8     9 ar  
    21     8    26 1   
    22     9    10 ar  
    23     9    27 1   
    24    10    11 1   
    25    11    12 1   
    26    12    13 ar  
    27    12    15 ar  
    28    13    28 1   
    29    14    29 1   
    30    15    30 1   
    31    22    31 1   
    32    23    31 1   
@<TRIPOS>SUBSTRUCTURE
     1 9AG         1 TEMP              0 ****  ****    0 ROOT
