@<TRIPOS>MOLECULE
9AG
   31    32     1     0     0
SMALL
No Charge or Current Charge


@<TRIPOS>ATOM
      1 C13          4.7740    -0.7090    -0.8810 ca         1 9AG      -0.098500
      2 C15          3.8630    -0.4720     1.3660 ca         1 9AG      -0.098500
      3 C01         -6.1830    -0.8010     0.1490 c3         1 9AG       0.142100
      4 N02         -4.7940    -0.5030    -0.2480 n7         1 9AG      -0.854400
      5 C04         -2.4680     0.0350     0.3380 ca         1 9AG      -0.120300
      6 C05         -2.1050     1.3110    -0.1350 ca         1 9AG      -0.065500
      7 C06         -0.8050     1.5450    -0.6180 ca         1 9AG      -0.161000
      8 C07         -1.5190    -1.0080     0.3170 ca         1 9AG      -0.065500
      9 C08         -0.2200    -0.7730    -0.1660 ca         1 9AG      -0.161000
     10 C09          0.1410     0.5080    -0.6240 ca         1 9AG       0.137100
     11 O10          1.4030     0.7600    -1.1150 os         1 9AG      -0.257200
     12 C11          2.5420     0.2170    -0.5650 ca         1 9AG       0.104100
     13 C12          3.5930    -0.1650    -1.4170 ca         1 9AG      -0.124500
     14 C14          4.9070    -0.8650     0.5100 ca         1 9AG      -0.117000
     15 C16          2.6820     0.0730     0.8310 ca         1 9AG      -0.124500
     16 H1           5.5840    -1.0090    -1.5420 ha         1 9AG       0.115500
     17 H2           3.9700    -0.5860     2.4430 ha         1 9AG       0.115500
     18 H3          -6.6250     0.0450     0.6930 h1         1 9AG       0.029033
     19 H4          -6.8040    -0.9990    -0.7350 h1         1 9AG       0.029033
     20 H5          -6.2240    -1.6870     0.7990 h1         1 9AG       0.029033
     21 H6          -4.4230    -1.3150    -0.7560 hn         1 9AG       0.409000
     22 H8          -4.2110     0.6690     1.4240 h1         1 9AG       0.034700
     23 H9          -3.8490    -1.0580     1.5710 h1         1 9AG       0.034700
     24 H10         -2.8330     2.1210    -0.1300 ha         1 9AG       0.116000
     25 H11         -0.5300     2.5300    -0.9840 ha         1 9AG       0.127500
     26 H12         -1.7900    -2.0000     0.6730 ha         1 9AG       0.116000
     27 H13          0.5010    -1.5870    -0.1870 ha         1 9AG       0.127500
     28 H14          3.4890    -0.0420    -2.4920 ha         1 9AG       0.128500
     29 H15          5.8210    -1.2850     0.9250 ha         1 9AG       0.116000
     30 H16          1.8830     0.3850     1.4980 ha         1 9AG       0.128500
     31 C03         -3.8740    -0.2150     0.8650 c3         1 9AG       0.206100
@<TRIPOS>BOND
     1     1    13 ar  
     2     1    14 ar  
     3     1    16 1   
     4     2    14 ar  
     5     2    15 ar  
     6     2    17 1   
     7     3     4 1   
     8     3    18 1   
     9     3    19 1   
    10     3    20 1   
    11     4    21 1   
    12     4    31 1   
    13     5     6 ar  
    14     5     8 ar  
    15     5    31 1   
    16     6     7 ar  
    17     6    24 1   
    18     7    10 ar  
    19     7    25 1   
    20     8     9 ar  
    21     8    26 1   
    22     9    10 ar  
    23     9    27 1   
    24    10    11 1   
    25    11    12 1   
    26    12    13 ar  
    27    12    15 ar  
    28    13    28 1   
    29    14    29 1   
    30    15    30 1   
    31    22    31 1   
    32    23    31 1   
@<TRIPOS>SUBSTRUCTURE
     1 9AG         1 TEMP              0 ****  ****    0 ROOT
