@<TRIPOS>MOLECULE
9AH
   32    31     1     0     0
SMALL
bcc


@<TRIPOS>ATOM
      1 N1           0.7820     0.0270     0.1080 n3         1 9AH      -0.736600
      2 C2          -0.4060    -0.6200     0.6340 c3         1 9AH       0.175800
      3 C3          -1.6530    -0.2550    -0.1610 c3         1 9AH      -0.074400
      4 C8           2.1900    -1.9090    -0.5670 c3         1 9AH      -0.078400
      5 C9           3.4610    -2.6850    -0.2480 c3         1 9AH      -0.091100
      6 C10          0.9000     1.4110     0.5460 c3         1 9AH       0.173300
      7 C11          1.6450     2.2830    -0.4540 c3         1 9AH      -0.078400
      8 C12          1.8410     3.7040     0.0570 c3         1 9AH      -0.091100
      9 N6          -5.0490    -0.3570    -0.8990 n1         1 9AH      -0.374800
     10 C5          -4.0990    -0.6150    -0.3020 c1         1 9AH       0.210700
     11 C4          -2.8890    -0.9280     0.4400 c3         1 9AH      -0.020300
     12 C7           1.9920    -0.7340     0.3800 c3         1 9AH       0.173300
     13 H2          -0.2750    -1.7030     0.5750 h1         1 9AH       0.030200
     14 H3          -0.5600    -0.3910     1.7020 h1         1 9AH       0.030200
     15 H4          -1.8050     0.8260    -0.1700 hc         1 9AH       0.059200
     16 H5          -1.5230    -0.5710    -1.1970 hc         1 9AH       0.059200
     17 H6           2.2270    -1.5290    -1.5910 hc         1 9AH       0.045950
     18 H7           1.3330    -2.5860    -0.5190 hc         1 9AH       0.045950
     19 H8           3.6090    -3.5110    -0.9440 hc         1 9AH       0.032533
     20 H9           4.3430    -2.0440    -0.3040 hc         1 9AH       0.032533
     21 H10          3.4260    -3.1060     0.7590 hc         1 9AH       0.032533
     22 H11         -0.1020     1.8270     0.6800 h1         1 9AH       0.029450
     23 H12          1.3830     1.4770     1.5360 h1         1 9AH       0.029450
     24 H13          2.6190     1.8430    -0.6860 hc         1 9AH       0.045950
     25 H14          1.0830     2.2960    -1.3920 hc         1 9AH       0.045950
     26 H15          0.8850     4.1810     0.2840 hc         1 9AH       0.032533
     27 H16          2.4400     3.7170     0.9690 hc         1 9AH       0.032533
     28 H17          2.3500     4.3240    -0.6810 hc         1 9AH       0.032533
     29 H18         -2.7740    -2.0140     0.4500 hc         1 9AH       0.067700
     30 H19         -3.0380    -0.6150     1.4750 hc         1 9AH       0.067700
     31 H20          2.8520    -0.0680     0.2720 h1         1 9AH       0.029450
     32 H21          2.0180    -1.0880     1.4250 h1         1 9AH       0.029450
@<TRIPOS>BOND
     1     1     2 1   
     2     1     6 1   
     3     1    12 1   
     4     2     3 1   
     5     2    13 1   
     6     2    14 1   
     7     3    11 1   
     8     3    15 1   
     9     3    16 1   
    10     4     5 1   
    11     4    12 1   
    12     4    17 1   
    13     4    18 1   
    14     5    19 1   
    15     5    20 1   
    16     5    21 1   
    17     6     7 1   
    18     6    22 1   
    19     6    23 1   
    20     7     8 1   
    21     7    24 1   
    22     7    25 1   
    23     8    26 1   
    24     8    27 1   
    25     8    28 1   
    26     9    10 3   
    27    10    11 1   
    28    11    29 1   
    29    11    30 1   
    30    12    31 1   
    31    12    32 1   
@<TRIPOS>SUBSTRUCTURE
     1 9AH         1 TEMP              0 ****  ****    0 ROOT
