@<TRIPOS>MOLECULE
9AH
   32    31     1     0     0
SMALL
No Charge or Current Charge


@<TRIPOS>ATOM
      1 N1           0.7850     0.0220    -0.0580 n3         1 9AH      -0.736600
      2 C2          -0.4190    -0.7020     0.4480 c3         1 9AH       0.175800
      3 C3          -1.7820    -0.1230     0.0000 c3         1 9AH      -0.074400
      4 C8           2.1740    -2.1220    -0.3780 c3         1 9AH      -0.078400
      5 C9           3.5910    -2.7150    -0.2490 c3         1 9AH      -0.091100
      6 C10          0.8260     1.4490     0.3820 c3         1 9AH       0.173300
      7 C11          1.9270     2.3200    -0.2700 c3         1 9AH      -0.078400
      8 C12          1.7640     3.8210     0.0380 c3         1 9AH      -0.091100
      9 N6          -5.2850    -0.0520    -0.4060 n1         1 9AH      -0.464000
     10 C5          -4.2650    -0.5110    -0.0780 c1         1 9AH       0.299900
     11 C4          -2.9680    -1.0570     0.3420 c3         1 9AH      -0.020300
     12 C7           2.0580    -0.7040     0.2330 c3         1 9AH       0.173300
     13 H2          -0.4000    -1.7390     0.0910 h1         1 9AH       0.030200
     14 H3          -0.3970    -0.7430     1.5460 h1         1 9AH       0.030200
     15 H4          -1.9510     0.8460     0.4830 hc         1 9AH       0.059200
     16 H5          -1.7560     0.0490    -1.0830 hc         1 9AH       0.059200
     17 H6           1.9000    -2.0820    -1.4390 hc         1 9AH       0.045950
     18 H7           1.4730    -2.8050     0.1150 hc         1 9AH       0.045950
     19 H8           3.6270    -3.7190    -0.6880 hc         1 9AH       0.032533
     20 H9           4.3240    -2.0870    -0.7690 hc         1 9AH       0.032533
     21 H10          3.8850    -2.7910     0.8050 hc         1 9AH       0.032533
     22 H11         -0.1250     1.9360     0.1380 h1         1 9AH       0.029450
     23 H12          0.9380     1.5010     1.4740 h1         1 9AH       0.029450
     24 H13          2.9160     2.0050     0.0830 hc         1 9AH       0.045950
     25 H14          1.9060     2.1740    -1.3570 hc         1 9AH       0.045950
     26 H15          0.8040     4.1930    -0.3400 hc         1 9AH       0.032533
     27 H16          1.8050     4.0020     1.1190 hc         1 9AH       0.032533
     28 H17          2.5660     4.3990    -0.4370 hc         1 9AH       0.032533
     29 H18         -2.8280    -2.0290    -0.1440 hc         1 9AH       0.067700
     30 H19         -2.9990    -1.2360     1.4230 hc         1 9AH       0.067700
     31 H20          2.9050    -0.1350    -0.1670 h1         1 9AH       0.029450
     32 H21          2.2070    -0.7770     1.3190 h1         1 9AH       0.029450
@<TRIPOS>BOND
     1     1     2 1   
     2     1     6 1   
     3     1    12 1   
     4     2     3 1   
     5     2    13 1   
     6     2    14 1   
     7     3    11 1   
     8     3    15 1   
     9     3    16 1   
    10     4     5 1   
    11     4    12 1   
    12     4    17 1   
    13     4    18 1   
    14     5    19 1   
    15     5    20 1   
    16     5    21 1   
    17     6     7 1   
    18     6    22 1   
    19     6    23 1   
    20     7     8 1   
    21     7    24 1   
    22     7    25 1   
    23     8    26 1   
    24     8    27 1   
    25     8    28 1   
    26     9    10 3   
    27    10    11 1   
    28    11    29 1   
    29    11    30 1   
    30    12    31 1   
    31    12    32 1   
@<TRIPOS>SUBSTRUCTURE
     1 9AH         1 TEMP              0 ****  ****    0 ROOT
