@<TRIPOS>MOLECULE
9AI
   13    12     1     0     0
SMALL
No Charge or Current Charge


@<TRIPOS>ATOM
      1 C6          -0.6510     0.6790     0.1350 c3         1 9AI       0.113200
      2 C5          -1.9400     0.2480    -0.5290 c2         1 9AI      -0.244200
      3 C4          -3.0930    -0.0170     0.1080 c2         1 9AI      -0.300000
      4 C1           1.0120    -1.2120    -0.1220 cs         1 9AI       0.367200
      5 N1           0.0890    -0.4950     0.5950 ns         1 9AI      -0.393900
      6 S6           1.4750    -0.8520    -1.6950 s          1 9AI      -0.567400
      7 H1          -0.0330     1.2590    -0.5640 h1         1 9AI       0.073700
      8 H2          -0.8670     1.3220     0.9990 h1         1 9AI       0.073700
      9 H3          -1.8700     0.1570    -1.6160 ha         1 9AI       0.195000
     10 H5          -3.1830     0.0650     1.1930 ha         1 9AI       0.165000
     11 H6          -3.9880    -0.3260    -0.4340 ha         1 9AI       0.165000
     12 H8           1.4180    -2.0530     0.4430 h5         1 9AI       0.041200
     13 H4          -0.1060    -0.8260     1.5350 hn         1 9AI       0.312500
@<TRIPOS>BOND
     1     1     2 1   
     2     1     5 1   
     3     1     7 1   
     4     1     8 1   
     5     2     3 2   
     6     2     9 1   
     7     3    10 1   
     8     3    11 1   
     9     4     5 1   
    10     4     6 2   
    11     4    12 1   
    12     5    13 1   
@<TRIPOS>SUBSTRUCTURE
     1 9AI         1 TEMP              0 ****  ****    0 ROOT
