@<TRIPOS>MOLECULE
9AI
   13    12     1     0     0
SMALL
bcc


@<TRIPOS>ATOM
      1 C6          -0.7100     0.5130     0.2520 c3         1 9AI       0.113200
      2 C5          -1.9500     0.0320    -0.4390 c2         1 9AI      -0.194200
      3 C4          -3.1770     0.2300     0.0260 c2         1 9AI      -0.200000
      4 C1           1.0950    -1.0890    -0.2140 cs         1 9AI       0.434200
      5 N1           0.1810    -0.5830     0.5850 ns         1 9AI      -0.460900
      6 S6           1.4500    -0.5990    -1.7550 s          1 9AI      -0.567400
      7 H1          -0.1620     1.2060    -0.3890 h1         1 9AI       0.073700
      8 H2          -0.9580     1.0320     1.1770 h1         1 9AI       0.073700
      9 H3          -1.8000    -0.5000    -1.3730 ha         1 9AI       0.145000
     10 H5          -3.3570     0.7570     0.9560 ha         1 9AI       0.115000
     11 H6          -4.0480    -0.1210    -0.5110 ha         1 9AI       0.115000
     12 H8           1.6410    -1.9100     0.2450 h5         1 9AI       0.041200
     13 H4           0.0570    -1.0190     1.4870 hn         1 9AI       0.312500
@<TRIPOS>BOND
     1     1     2 1   
     2     1     5 1   
     3     1     7 1   
     4     1     8 1   
     5     2     3 2   
     6     2     9 1   
     7     3    10 1   
     8     3    11 1   
     9     4     5 1   
    10     4     6 2   
    11     4    12 1   
    12     5    13 1   
@<TRIPOS>SUBSTRUCTURE
     1 9AI         1 TEMP              0 ****  ****    0 ROOT
