@<TRIPOS>MOLECULE
9AJ
   93   100     1     0     0
SMALL
No Charge or Current Charge


@<TRIPOS>ATOM
      1 C4          -6.2440    -1.9050     0.9610 cc         1 9AJ      -0.060000
      2 C14         -6.9770     1.9790    -0.3870 c6         1 9AJ       0.112000
      3 C5          -7.5800    -2.2690     1.2050 cc         1 9AJ      -0.182300
      4 C6          -8.1440    -3.6280     1.3730 c5         1 9AJ       0.010900
      5 C11         -8.4210    -1.2860     0.9050 cd         1 9AJ      -0.154300
      6 C7          -9.5510    -3.4520     0.6560 c5         1 9AJ      -0.049000
      7 C8         -10.6770    -4.2360     1.3760 c3         1 9AJ      -0.083600
      8 C9          -9.4820    -3.9540    -0.8110 c3         1 9AJ      -0.083600
      9 C10         -9.7920    -1.8670     0.6950 c5         1 9AJ      -0.002100
     10 C13         -8.0610     0.8700    -0.4220 c6         1 9AJ       0.051600
     11 C3          -6.2900    -0.6080     0.4890 cd         1 9AJ      -0.269600
     12 C46          1.9130     4.0000    -0.3300 c          1 9AJ       0.537200
     13 C26          1.2020     2.7390     0.0980 cc         1 9AJ       0.020800
     14 N27          1.9150     1.7530     0.7880 nu         1 9AJ      -0.811900
     15 C28          3.1390     1.1670     0.6010 ca         1 9AJ       0.626900
     16 N33          3.4650     0.3840     1.6300 nb         1 9AJ      -0.742000
     17 C32          4.6480    -0.2780     1.5420 ca         1 9AJ       0.401900
     18 C31          5.5340    -0.1910     0.4320 ca         1 9AJ       0.128000
     19 N34          6.7570    -0.9170     0.3850 nh         1 9AJ      -0.761400
     20 C39          8.0520    -0.2330     0.0400 c6         1 9AJ       0.196500
     21 C41          8.1660     1.1450     0.7510 c3         1 9AJ      -0.093100
     22 C38          9.3020    -1.1160     0.3920 c6         1 9AJ       0.173800
     23 N37          9.2370    -2.4950    -0.1810 n3         1 9AJ      -0.723600
     24 C42         10.4940    -3.2700     0.0890 cy         1 9AJ       0.135500
     25 C45         10.5900    -4.7870    -0.2920 cy         1 9AJ       0.119600
     26 O44         11.4760    -4.9500     0.8780 oq         1 9AJ      -0.452000
     27 C43         10.7940    -3.8140     1.5280 cy         1 9AJ       0.119600
     28 C36          7.9720    -3.1590     0.2680 c6         1 9AJ       0.168800
     29 C35          6.7030    -2.3300    -0.1050 c6         1 9AJ       0.179800
     30 C30          5.1370     0.6190    -0.6500 ca         1 9AJ      -0.067000
     31 C29          3.9140     1.3060    -0.5610 ca         1 9AJ      -0.197000
     32 C25         -0.1340     2.5400    -0.1890 cd         1 9AJ      -0.122000
     33 N48          1.1260     4.8970    -1.0810 n          1 9AJ      -0.265000
     34 C49          1.7710     6.1400    -1.5680 c3         1 9AJ       0.075300
     35 C50         -0.2180     4.6470    -1.3610 cc         1 9AJ      -0.022400
     36 C24         -0.9060     3.5410    -0.8920 cd         1 9AJ      -0.139200
     37 C20         -2.3160     3.3000    -1.2920 ca         1 9AJ       0.028200
     38 C19         -2.7400     3.7220    -2.5670 ca         1 9AJ      -0.168000
     39 C18         -4.0390     3.4450    -2.9990 ca         1 9AJ       0.355900
     40 N17         -4.9280     2.7700    -2.2510 nb         1 9AJ      -0.681000
     41 C21         -3.2730     2.6460    -0.4650 ca         1 9AJ      -0.100300
     42 C22         -2.9940     2.4190     1.0310 c3         1 9AJ       0.209900
     43 O23         -4.0830     2.8760     1.8460 oh         1 9AJ      -0.664000
     44 C16         -4.5720     2.3970    -1.0020 ca         1 9AJ       0.490900
     45 N15         -5.5330     1.5260    -0.3900 n          1 9AJ      -0.428300
     46 C2          -5.1710     0.2100    -0.0130 c          1 9AJ       0.618600
     47 O1          -4.0360    -0.2330    -0.1190 o          1 9AJ      -0.548000
     48 N12         -7.6340    -0.2540     0.4020 na         1 9AJ       0.063000
     49 H1          -5.3740    -2.5520     1.0430 ha         1 9AJ       0.147000
     50 H2          -7.1790     2.6800    -1.2070 h1         1 9AJ       0.065700
     51 H3          -7.1240     2.5520     0.5400 h1         1 9AJ       0.065700
     52 H4          -7.5220    -4.4060     0.9150 hc         1 9AJ       0.050700
     53 H5          -8.2460    -3.8700     2.4370 hc         1 9AJ       0.050700
     54 H6         -10.7730    -3.9210     2.4230 hc         1 9AJ       0.035867
     55 H7         -11.6480    -4.0730     0.8930 hc         1 9AJ       0.035867
     56 H8         -10.4770    -5.3140     1.3730 hc         1 9AJ       0.035867
     57 H9         -10.4310    -3.7890    -1.3360 hc         1 9AJ       0.035867
     58 H10         -8.6990    -3.4300    -1.3730 hc         1 9AJ       0.035867
     59 H11         -9.2590    -5.0270    -0.8570 hc         1 9AJ       0.035867
     60 H12        -10.4550    -1.5850     1.5210 hc         1 9AJ       0.053200
     61 H13        -10.2700    -1.4980    -0.2200 hc         1 9AJ       0.053200
     62 H14         -9.0240     1.2570    -0.0620 h1         1 9AJ       0.069700
     63 H15         -8.1920     0.5130    -1.4520 h1         1 9AJ       0.069700
     64 H16          1.4220     1.2930     1.5510 hn         1 9AJ       0.511000
     65 H17          4.9040    -0.9070     2.3940 h4         1 9AJ       0.027100
     66 H18          8.0750    -0.0480    -1.0440 h1         1 9AJ       0.032700
     67 H19          8.0890     1.0380     1.8390 hc         1 9AJ       0.043033
     68 H20          9.1300     1.6190     0.5310 hc         1 9AJ       0.043033
     69 H21          7.3860     1.8410     0.4240 hc         1 9AJ       0.043033
     70 H22         10.2030    -0.6020     0.0270 h1         1 9AJ       0.038700
     71 H23          9.3910    -1.1730     1.4870 h1         1 9AJ       0.038700
     72 H25         11.3640    -2.7300    -0.3050 h1         1 9AJ       0.071700
     73 H26          9.6680    -5.3690    -0.1790 h1         1 9AJ       0.053700
     74 H27         11.0940    -5.0060    -1.2390 h1         1 9AJ       0.053700
     75 H28         11.4710    -3.2020     2.1340 h1         1 9AJ       0.053700
     76 H29          9.9200    -4.1430     2.1010 h1         1 9AJ       0.053700
     77 H30          7.8700    -4.1520    -0.1900 h1         1 9AJ       0.043200
     78 H31          7.9780    -3.3020     1.3580 h1         1 9AJ       0.043200
     79 H32          5.8230    -2.8400     0.3130 h1         1 9AJ       0.040700
     80 H33          6.5910    -2.3340    -1.1990 h1         1 9AJ       0.040700
     81 H34          5.7570     0.7060    -1.5380 ha         1 9AJ       0.116000
     82 H35          3.5710     1.9260    -1.3820 ha         1 9AJ       0.123000
     83 H36         -0.5950     1.6000     0.0960 ha         1 9AJ       0.204000
     84 H37          2.6390     5.8870    -2.1900 h1         1 9AJ       0.057033
     85 H38          1.0730     6.7380    -2.1660 h1         1 9AJ       0.057033
     86 H39          2.1060     6.7410    -0.7130 h1         1 9AJ       0.057033
     87 H40         -0.6670     5.4420    -1.9480 h4         1 9AJ       0.206000
     88 H41         -2.0640     4.2220    -3.2530 ha         1 9AJ       0.126000
     89 H42         -4.3680     3.7430    -3.9940 h4         1 9AJ       0.024100
     90 H43         -2.7790     1.3620     1.2270 h1         1 9AJ       0.042200
     91 H44         -2.1010     2.9810     1.3280 h1         1 9AJ       0.042200
     92 H45         -3.8210     2.7280     2.7820 ho         1 9AJ       0.446000
     93 O47          3.0850     4.2500    -0.0590 o          1 9AJ      -0.532000
@<TRIPOS>BOND
     1     1     3 1   
     2     1    11 2   
     3     1    49 1   
     4     2    10 1   
     5     2    45 1   
     6     2    50 1   
     7     2    51 1   
     8     3     4 1   
     9     3     5 2   
    10     4     6 1   
    11     4    52 1   
    12     4    53 1   
    13     5     9 1   
    14     5    48 1   
    15     6     7 1   
    16     6     8 1   
    17     6     9 1   
    18     7    54 1   
    19     7    55 1   
    20     7    56 1   
    21     8    57 1   
    22     8    58 1   
    23     8    59 1   
    24     9    60 1   
    25     9    61 1   
    26    10    48 1   
    27    10    62 1   
    28    10    63 1   
    29    11    46 1   
    30    11    48 1   
    31    12    13 1   
    32    12    33 1   
    33    12    93 2   
    34    13    14 1   
    35    13    32 2   
    36    14    15 1   
    37    14    64 1   
    38    15    16 ar  
    39    15    31 ar  
    40    16    17 ar  
    41    17    18 ar  
    42    17    65 1   
    43    18    19 1   
    44    18    30 ar  
    45    19    20 1   
    46    19    29 1   
    47    20    21 1   
    48    20    22 1   
    49    20    66 1   
    50    21    67 1   
    51    21    68 1   
    52    21    69 1   
    53    22    23 1   
    54    22    70 1   
    55    22    71 1   
    56    23    24 1   
    57    23    28 1   
    58    24    25 1   
    59    24    27 1   
    60    24    72 1   
    61    25    26 1   
    62    25    73 1   
    63    25    74 1   
    64    26    27 1   
    65    27    75 1   
    66    27    76 1   
    67    28    29 1   
    68    28    77 1   
    69    28    78 1   
    70    29    79 1   
    71    29    80 1   
    72    30    31 ar  
    73    30    81 1   
    74    31    82 1   
    75    32    36 1   
    76    32    83 1   
    77    33    34 1   
    78    33    35 1   
    79    34    84 1   
    80    34    85 1   
    81    34    86 1   
    82    35    36 2   
    83    35    87 1   
    84    36    37 1   
    85    37    38 ar  
    86    37    41 ar  
    87    38    39 ar  
    88    38    88 1   
    89    39    40 ar  
    90    39    89 1   
    91    40    44 ar  
    92    41    42 1   
    93    41    44 ar  
    94    42    43 1   
    95    42    90 1   
    96    42    91 1   
    97    43    92 1   
    98    44    45 1   
    99    45    46 1   
   100    46    47 2   
@<TRIPOS>SUBSTRUCTURE
     1 9AJ         1 TEMP              0 ****  ****    0 ROOT
