@<TRIPOS>MOLECULE
9AJ
   93   100     1     0     0
SMALL
abcg2


@<TRIPOS>ATOM
      1 C4          -6.7550    -2.2850     0.6220 cc         1 9AJ      -0.060000
      2 C14         -6.5050     1.6090    -0.6670 c6         1 9AJ       0.112000
      3 C5          -8.1380    -2.3260     0.8620 cc         1 9AJ      -0.182300
      4 C6          -9.2040    -3.1590     1.4980 c5         1 9AJ       0.010900
      5 C11         -8.6790    -1.1620     0.3730 cd         1 9AJ      -0.154300
      6 C7         -10.5210    -2.5050     0.9680 c5         1 9AJ      -0.049000
      7 C8         -11.6300    -2.5410     2.0100 c3         1 9AJ      -0.083600
      8 C9         -10.9670    -3.2360    -0.2970 c3         1 9AJ      -0.083600
      9 C10        -10.1420    -1.0360     0.5890 c5         1 9AJ      -0.002100
     10 C13         -7.7850     0.8350    -0.8890 c6         1 9AJ       0.051600
     11 C3          -6.5090    -1.0720    -0.0050 cd         1 9AJ      -0.269600
     12 C46          1.7900     3.2850     0.2520 c          1 9AJ       0.537200
     13 C26          1.2410     1.9490     0.3960 cc         1 9AJ       0.020800
     14 N27          1.9340     1.0500     1.2040 nu         1 9AJ      -0.811900
     15 C28          3.2230     0.6290     1.0090 ca         1 9AJ       0.626900
     16 N33          3.7300    -0.1260     1.9780 nb         1 9AJ      -0.742000
     17 C32          4.9710    -0.5800     1.8480 ca         1 9AJ       0.401900
     18 C31          5.7890    -0.3150     0.7640 ca         1 9AJ       0.128000
     19 N34          7.0990    -0.8610     0.7230 nh         1 9AJ      -0.761400
     20 C39          8.1750     0.1270     0.6670 c6         1 9AJ       0.196500
     21 C41          8.0640     1.1350     1.7990 c3         1 9AJ      -0.093100
     22 C38          9.5120    -0.5980     0.7580 c6         1 9AJ       0.173800
     23 N37          9.6500    -1.6010    -0.2780 n3         1 9AJ      -0.723600
     24 C42         10.9840    -2.1240    -0.3680 cy         1 9AJ       0.135500
     25 C45         11.3030    -3.1140    -1.4970 cy         1 9AJ       0.119600
     26 O44         11.7810    -4.0940    -0.5680 oq         1 9AJ      -0.452000
     27 C43         11.4870    -3.2560     0.5580 cy         1 9AJ       0.119600
     28 C36          8.5840    -2.5770    -0.1750 c6         1 9AJ       0.168800
     29 C35          7.2440    -1.8830    -0.3040 c6         1 9AJ       0.179800
     30 C30          5.2400     0.4670    -0.2560 ca         1 9AJ      -0.067000
     31 C29          3.9520     0.9420    -0.1480 ca         1 9AJ      -0.197000
     32 C25          0.0480     1.6210    -0.1700 cd         1 9AJ      -0.122000
     33 N48          1.0450     4.1410    -0.5440 n          1 9AJ      -0.265000
     34 C49          1.5630     5.4900    -0.7270 c3         1 9AJ       0.075300
     35 C50         -0.1430     3.7990    -1.0940 cc         1 9AJ      -0.022400
     36 C24         -0.6950     2.5670    -0.9200 cd         1 9AJ      -0.139200
     37 C20         -1.9830     2.2270    -1.5530 ca         1 9AJ       0.028200
     38 C19         -2.1360     2.4260    -2.9240 ca         1 9AJ      -0.168000
     39 C18         -3.3390     2.1070    -3.5220 ca         1 9AJ       0.355900
     40 N17         -4.3500     1.5670    -2.8540 nb         1 9AJ      -0.681000
     41 C21         -3.0620     1.7080    -0.8300 ca         1 9AJ      -0.100300
     42 C22         -3.0770     1.6290     0.6730 c3         1 9AJ       0.209900
     43 O23         -4.0440     2.5480     1.1390 oh         1 9AJ      -0.664000
     44 C16         -4.2060     1.3650    -1.5580 ca         1 9AJ       0.490900
     45 N15         -5.3300     0.7820    -0.9200 n          1 9AJ      -0.428300
     46 C2          -5.2700    -0.5250    -0.5340 c          1 9AJ       0.618600
     47 O1          -4.2510    -1.1960    -0.6430 o          1 9AJ      -0.548000
     48 N12         -7.7000    -0.3960    -0.1380 na         1 9AJ       0.063000
     49 H1          -6.0050    -3.0200     0.8720 ha         1 9AJ       0.147000
     50 H2          -6.4830     2.4600    -1.3470 h1         1 9AJ       0.065700
     51 H3          -6.4720     1.9970     0.3520 h1         1 9AJ       0.065700
     52 H4          -9.1570    -4.2200     1.2400 hc         1 9AJ       0.050700
     53 H5          -9.1520    -3.1010     2.5910 hc         1 9AJ       0.050700
     54 H6         -11.3310    -2.0230     2.9230 hc         1 9AJ       0.035867
     55 H7         -12.5390    -2.0630     1.6380 hc         1 9AJ       0.035867
     56 H8         -11.8850    -3.5680     2.2790 hc         1 9AJ       0.035867
     57 H9         -11.8580    -2.7720    -0.7240 hc         1 9AJ       0.035867
     58 H10        -10.1870    -3.2250    -1.0620 hc         1 9AJ       0.035867
     59 H11        -11.2050    -4.2800    -0.0820 hc         1 9AJ       0.035867
     60 H12        -10.3590    -0.3400     1.4070 hc         1 9AJ       0.053200
     61 H13        -10.7020    -0.6860    -0.2820 hc         1 9AJ       0.053200
     62 H14         -8.6320     1.4210    -0.5360 h1         1 9AJ       0.069700
     63 H15         -7.9360     0.6180    -1.9500 h1         1 9AJ       0.069700
     64 H16          1.4190     0.5670     1.9230 hn         1 9AJ       0.511000
     65 H17          5.3490    -1.1970     2.6580 h4         1 9AJ       0.027100
     66 H18          8.1610     0.6730    -0.2930 h1         1 9AJ       0.032700
     67 H19          8.0440     0.6300     2.7670 hc         1 9AJ       0.043033
     68 H20          8.9210     1.8080     1.7810 hc         1 9AJ       0.043033
     69 H21          7.1660     1.7460     1.7180 hc         1 9AJ       0.043033
     70 H22         10.3120     0.1380     0.6450 h1         1 9AJ       0.038700
     71 H23          9.6090    -1.0290     1.7700 h1         1 9AJ       0.038700
     72 H25         11.6670    -1.2730    -0.3680 h1         1 9AJ       0.071700
     73 H26         10.4440    -3.4670    -2.0760 h1         1 9AJ       0.053700
     74 H27         12.0760    -2.7850    -2.1970 h1         1 9AJ       0.053700
     75 H28         12.3790    -3.0180     1.1440 h1         1 9AJ       0.053700
     76 H29         10.7430    -3.7010     1.2260 h1         1 9AJ       0.053700
     77 H30          8.6700    -3.3130    -0.9760 h1         1 9AJ       0.043200
     78 H31          8.6060    -3.1290     0.7780 h1         1 9AJ       0.043200
     79 H32          6.4470    -2.6180    -0.1810 h1         1 9AJ       0.040700
     80 H33          7.1520    -1.4700    -1.3210 h1         1 9AJ       0.040700
     81 H34          5.8160     0.7010    -1.1440 ha         1 9AJ       0.116000
     82 H35          3.5110     1.5130    -0.9530 ha         1 9AJ       0.123000
     83 H36         -0.3310     0.6120    -0.0510 ha         1 9AJ       0.204000
     84 H37          2.5550     5.4580    -1.1730 h1         1 9AJ       0.057033
     85 H38          0.8970     6.0360    -1.3870 h1         1 9AJ       0.057033
     86 H39          1.6220     6.0110     0.2260 h1         1 9AJ       0.057033
     87 H40         -0.6410     4.5720    -1.6630 h4         1 9AJ       0.206000
     88 H41         -1.3210     2.8160    -3.5190 ha         1 9AJ       0.126000
     89 H42         -3.4860     2.2700    -4.5830 h4         1 9AJ       0.024100
     90 H43         -3.2950     0.6080     0.9960 h1         1 9AJ       0.042200
     91 H44         -2.0910     1.8760     1.0750 h1         1 9AJ       0.042200
     92 H45         -4.2690     2.3090     2.0430 ho         1 9AJ       0.446000
     93 O47          2.8310     3.6670     0.7720 o          1 9AJ      -0.532000
@<TRIPOS>BOND
     1     1     3 1   
     2     1    11 2   
     3     1    49 1   
     4     2    10 1   
     5     2    45 1   
     6     2    50 1   
     7     2    51 1   
     8     3     4 1   
     9     3     5 2   
    10     4     6 1   
    11     4    52 1   
    12     4    53 1   
    13     5     9 1   
    14     5    48 1   
    15     6     7 1   
    16     6     8 1   
    17     6     9 1   
    18     7    54 1   
    19     7    55 1   
    20     7    56 1   
    21     8    57 1   
    22     8    58 1   
    23     8    59 1   
    24     9    60 1   
    25     9    61 1   
    26    10    48 1   
    27    10    62 1   
    28    10    63 1   
    29    11    46 1   
    30    11    48 1   
    31    12    13 1   
    32    12    33 1   
    33    12    93 2   
    34    13    14 1   
    35    13    32 2   
    36    14    15 1   
    37    14    64 1   
    38    15    16 ar  
    39    15    31 ar  
    40    16    17 ar  
    41    17    18 ar  
    42    17    65 1   
    43    18    19 1   
    44    18    30 ar  
    45    19    20 1   
    46    19    29 1   
    47    20    21 1   
    48    20    22 1   
    49    20    66 1   
    50    21    67 1   
    51    21    68 1   
    52    21    69 1   
    53    22    23 1   
    54    22    70 1   
    55    22    71 1   
    56    23    24 1   
    57    23    28 1   
    58    24    25 1   
    59    24    27 1   
    60    24    72 1   
    61    25    26 1   
    62    25    73 1   
    63    25    74 1   
    64    26    27 1   
    65    27    75 1   
    66    27    76 1   
    67    28    29 1   
    68    28    77 1   
    69    28    78 1   
    70    29    79 1   
    71    29    80 1   
    72    30    31 ar  
    73    30    81 1   
    74    31    82 1   
    75    32    36 1   
    76    32    83 1   
    77    33    34 1   
    78    33    35 1   
    79    34    84 1   
    80    34    85 1   
    81    34    86 1   
    82    35    36 2   
    83    35    87 1   
    84    36    37 1   
    85    37    38 ar  
    86    37    41 ar  
    87    38    39 ar  
    88    38    88 1   
    89    39    40 ar  
    90    39    89 1   
    91    40    44 ar  
    92    41    42 1   
    93    41    44 ar  
    94    42    43 1   
    95    42    90 1   
    96    42    91 1   
    97    43    92 1   
    98    44    45 1   
    99    45    46 1   
   100    46    47 2   
@<TRIPOS>SUBSTRUCTURE
     1 9AJ         1 TEMP              0 ****  ****    0 ROOT
