@<TRIPOS>MOLECULE
9AK
   25    24     1     0     0
SMALL
No Charge or Current Charge


@<TRIPOS>ATOM
      1 C2          -0.6750     0.6650    -0.5540 c3         1 9AK       0.172800
      2 C3          -1.9060    -0.1860    -0.0760 c3         1 9AK       0.173200
      3 N1           0.5640     0.3200     0.1880 n7         1 9AK      -0.843400
      4 C5          -3.2210     0.4340    -0.6020 c3         1 9AK      -0.107100
      5 C6          -1.7820    -1.6530    -0.5550 c3         1 9AK      -0.107100
      6 C7           1.7800     1.0430    -0.2420 c3         1 9AK       0.158800
      7 N4          -1.9460    -0.1890     1.3960 n8         1 9AK      -0.972200
      8 O9           3.1820    -0.9540     0.1240 oh         1 9AK      -0.669000
      9 C8           3.0520     0.4500     0.4250 c3         1 9AK       0.159600
     10 H1          -0.5320     0.5130    -1.6330 h1         1 9AK       0.023200
     11 H2          -0.8990     1.7300    -0.4040 h1         1 9AK       0.023200
     12 H3           0.7560    -0.6790     0.0380 hn         1 9AK       0.425000
     13 H5          -3.3400     1.4670    -0.2510 hc         1 9AK       0.037867
     14 H6          -3.2300     0.4490    -1.6980 hc         1 9AK       0.037867
     15 H7          -4.0920    -0.1420    -0.2650 hc         1 9AK       0.037867
     16 H8          -2.6430    -2.2480    -0.2280 hc         1 9AK       0.037867
     17 H9          -1.7370    -1.7000    -1.6500 hc         1 9AK       0.037867
     18 H10         -0.8750    -2.1270    -0.1600 hc         1 9AK       0.037867
     19 H11          1.8990     0.9740    -1.3320 h1         1 9AK       0.031200
     20 H12          1.7030     2.1080     0.0140 h1         1 9AK       0.031200
     21 H13         -0.9870     0.0470     1.6860 hn         1 9AK       0.388500
     22 H14         -2.4900     0.6200     1.7090 hn         1 9AK       0.388500
     23 H16          3.9870    -1.2710     0.5910 ho         1 9AK       0.444000
     24 H17          3.9310     1.0000     0.0630 h1         1 9AK       0.026700
     25 H18          2.9890     0.6010     1.5110 h1         1 9AK       0.026700
@<TRIPOS>BOND
     1     1     2 1   
     2     1     3 1   
     3     1    10 1   
     4     1    11 1   
     5     2     4 1   
     6     2     5 1   
     7     2     7 1   
     8     3     6 1   
     9     3    12 1   
    10     4    13 1   
    11     4    14 1   
    12     4    15 1   
    13     5    16 1   
    14     5    17 1   
    15     5    18 1   
    16     6     9 1   
    17     6    19 1   
    18     6    20 1   
    19     7    21 1   
    20     7    22 1   
    21     8     9 1   
    22     8    23 1   
    23     9    24 1   
    24     9    25 1   
@<TRIPOS>SUBSTRUCTURE
     1 9AK         1 TEMP              0 ****  ****    0 ROOT
