@<TRIPOS>MOLECULE
9AK
   25    24     1     0     0
SMALL
abcg2


@<TRIPOS>ATOM
      1 C2          -0.5910     0.6690    -0.4060 c3         1 9AK       0.172800
      2 C3          -1.8420    -0.1070     0.0220 c3         1 9AK       0.173200
      3 N1           0.6410     0.1820     0.1740 n7         1 9AK      -0.843400
      4 C5          -3.0440     0.5250    -0.6900 c3         1 9AK      -0.107100
      5 C6          -1.7380    -1.5770    -0.3850 c3         1 9AK      -0.107100
      6 C7           1.7960     0.9140    -0.3020 c3         1 9AK       0.158800
      7 N4          -1.9720    -0.0490     1.4770 n8         1 9AK      -0.972200
      8 O9           3.2800    -0.9400    -0.1570 oh         1 9AK      -0.669000
      9 C8           3.0810     0.3850     0.2930 c3         1 9AK       0.159600
     10 H1          -0.5610     0.6730    -1.5090 h1         1 9AK       0.023200
     11 H2          -0.7160     1.7180    -0.1090 h1         1 9AK       0.023200
     12 H3           0.7600    -0.7940    -0.0670 hn         1 9AK       0.425000
     13 H5          -3.1320     1.5860    -0.4410 hc         1 9AK       0.037867
     14 H6          -2.9710     0.4440    -1.7760 hc         1 9AK       0.037867
     15 H7          -3.9700     0.0340    -0.3830 hc         1 9AK       0.037867
     16 H8          -2.6700    -2.1030    -0.1630 hc         1 9AK       0.037867
     17 H9          -1.5470    -1.6810    -1.4540 hc         1 9AK       0.037867
     18 H10         -0.9430    -2.0900     0.1590 hc         1 9AK       0.037867
     19 H11          1.8800     0.9170    -1.4030 h1         1 9AK       0.031200
     20 H12          1.6960     1.9620    -0.0040 h1         1 9AK       0.031200
     21 H13         -2.0370     0.9190     1.7730 hn         1 9AK       0.388500
     22 H14         -2.8560    -0.4710     1.7420 hn         1 9AK       0.388500
     23 H16          4.0220    -1.3160     0.3250 ho         1 9AK       0.444000
     24 H17          3.9070     1.0410    -0.0100 h1         1 9AK       0.026700
     25 H18          3.0140     0.4310     1.3870 h1         1 9AK       0.026700
@<TRIPOS>BOND
     1     1     2 1   
     2     1     3 1   
     3     1    10 1   
     4     1    11 1   
     5     2     4 1   
     6     2     5 1   
     7     2     7 1   
     8     3     6 1   
     9     3    12 1   
    10     4    13 1   
    11     4    14 1   
    12     4    15 1   
    13     5    16 1   
    14     5    17 1   
    15     5    18 1   
    16     6     9 1   
    17     6    19 1   
    18     6    20 1   
    19     7    21 1   
    20     7    22 1   
    21     8     9 1   
    22     8    23 1   
    23     9    24 1   
    24     9    25 1   
@<TRIPOS>SUBSTRUCTURE
     1 9AK         1 TEMP              0 ****  ****    0 ROOT
