@<TRIPOS>MOLECULE
9AL
   37    37     1     0     0
SMALL
bcc


@<TRIPOS>ATOM
      1 N            4.3560    -1.5520     0.7990 n8         1 9AL      -0.876800
      2 CA           3.2800    -0.6010     0.5550 c3         1 9AL       0.141500
      3 C2           2.1910    -1.3210    -0.2590 c3         1 9AL       0.076100
      4 O1           2.6860    -1.7790    -1.4850 oh         1 9AL      -0.587800
      5 CB           3.7370     0.7000    -0.1020 c3         1 9AL      -0.134100
      6 C            1.0020    -0.3980    -0.5090 c          1 9AL       0.630100
      7 O            0.7540    -0.0050    -1.6410 o          1 9AL      -0.606100
      8 N2           0.2980    -0.0370     0.5690 ns         1 9AL      -0.560900
      9 C5          -0.8230     0.8800     0.5060 c3         1 9AL       0.162000
     10 C6          -1.0780     1.4700     1.8940 c3         1 9AL      -0.090400
     11 C7           0.0890     2.2900     2.4250 c3         1 9AL      -0.091100
     12 C8          -2.0680     0.2240    -0.0470 ca         1 9AL      -0.098300
     13 C9          -2.8890     0.9240    -0.9240 ca         1 9AL      -0.112000
     14 C10         -4.0620     0.3570    -1.4050 ca         1 9AL      -0.127500
     15 C11         -4.4280    -0.9230    -1.0120 ca         1 9AL      -0.122000
     16 C12         -3.6140    -1.6290    -0.1360 ca         1 9AL      -0.127500
     17 C13         -2.4430    -1.0590     0.3440 ca         1 9AL      -0.112000
     18 H            4.8330    -1.7420    -0.0750 hn         1 9AL       0.344800
     19 H1           2.8450    -0.3580     1.5310 h1         1 9AL       0.049700
     20 H3           4.1130     0.5250    -1.1120 hc         1 9AL       0.042700
     21 H4           2.9400     1.4440    -0.1600 hc         1 9AL       0.042700
     22 H5           4.5460     1.1430     0.4800 hc         1 9AL       0.042700
     23 H6           0.5420    -0.4370     1.4620 hn         1 9AL       0.319500
     24 H7          -0.5440     1.7010    -0.1620 h1         1 9AL       0.074700
     25 H8          -1.9670     2.1000     1.8280 hc         1 9AL       0.052200
     26 H9          -1.3280     0.6620     2.5900 hc         1 9AL       0.052200
     27 H10          0.9970     1.6950     2.5340 hc         1 9AL       0.036033
     28 H11          0.3190     3.1220     1.7570 hc         1 9AL       0.036033
     29 H12         -0.1470     2.7080     3.4030 hc         1 9AL       0.036033
     30 H13         -2.6070     1.9230    -1.2380 ha         1 9AL       0.128000
     31 H14         -4.6860     0.9140    -2.0930 ha         1 9AL       0.131000
     32 H15         -5.3390    -1.3700    -1.3900 ha         1 9AL       0.131000
     33 H16         -3.8890    -2.6290     0.1750 ha         1 9AL       0.131000
     34 H17         -1.8130    -1.6250     1.0200 ha         1 9AL       0.128000
     35 H2           5.0480    -1.1220     1.4000 hn         1 9AL       0.344800
     36 H19          1.8540    -2.1840     0.3290 h1         1 9AL       0.083700
     37 H20          2.3320    -1.1900    -2.1670 ho         1 9AL       0.432000
@<TRIPOS>BOND
     1     1     2 1   
     2     1    18 1   
     3     1    35 1   
     4     2     3 1   
     5     2     5 1   
     6     2    19 1   
     7     3     4 1   
     8     3     6 1   
     9     3    36 1   
    10     4    37 1   
    11     5    20 1   
    12     5    21 1   
    13     5    22 1   
    14     6     7 2   
    15     6     8 1   
    16     8     9 1   
    17     8    23 1   
    18     9    10 1   
    19     9    12 1   
    20     9    24 1   
    21    10    11 1   
    22    10    25 1   
    23    10    26 1   
    24    11    27 1   
    25    11    28 1   
    26    11    29 1   
    27    12    13 ar  
    28    12    17 ar  
    29    13    14 ar  
    30    13    30 1   
    31    14    15 ar  
    32    14    31 1   
    33    15    16 ar  
    34    15    32 1   
    35    16    17 ar  
    36    16    33 1   
    37    17    34 1   
@<TRIPOS>SUBSTRUCTURE
     1 9AL         1 TEMP              0 ****  ****    0 ROOT
