@<TRIPOS>MOLECULE
9AM
   37    37     1     0     0
SMALL
abcg2


@<TRIPOS>ATOM
      1 C1          -3.3030     0.2480    -1.4510 c          1 9AM       0.726200
      2 C2          -2.2160    -0.0590    -0.4250 ce         1 9AM       0.049900
      3 C3          -2.4660    -0.4820     0.8140 c2         1 9AM      -0.427200
      4 C4          -1.3960    -0.7190     1.8370 c6         1 9AM       0.215500
      5 C5          -0.0980    -0.0690     1.3700 c6         1 9AM       0.076700
      6 C6           0.1020    -0.3930    -0.1150 c6         1 9AM       0.121300
      7 C7           1.3920     0.1850    -0.6890 c3         1 9AM       0.159300
      8 C8           1.6000    -0.1970    -2.1660 c3         1 9AM       0.129300
      9 C9           2.9350     0.3150    -2.6910 c3         1 9AM       0.118800
     10 C11          2.8530    -0.4490     3.7160 c3         1 9AM      -0.182100
     11 N5           1.0220    -0.5180     2.1530 ns         1 9AM      -0.495900
     12 O1A         -4.4750     0.0740    -1.0720 o          1 9AM      -0.694000
     13 O1B         -2.9120     0.6410    -2.5620 o          1 9AM      -0.694000
     14 O4          -1.7260    -0.1690     3.0930 oh         1 9AM      -0.658000
     15 O6          -0.9600     0.1400    -0.8900 os         1 9AM      -0.319100
     16 O7           1.4570     1.5790    -0.5060 oh         1 9AM      -0.659000
     17 O8           1.4800    -1.5930    -2.3520 oh         1 9AM      -0.637000
     18 N9           3.0630     0.0430    -4.1130 n8         1 9AM      -0.985200
     19 O10          1.5160     1.4490     3.1610 o          1 9AM      -0.593100
     20 H3          -3.4950    -0.6550     1.0970 ha         1 9AM       0.207000
     21 H4          -1.2210    -1.8020     1.9380 h1         1 9AM       0.002700
     22 H5          -0.1810     1.0130     1.4920 h1         1 9AM       0.119700
     23 H6           0.1170    -1.4860    -0.2330 h1         1 9AM       0.043700
     24 H7           2.2240    -0.2340    -0.1120 h1         1 9AM       0.048700
     25 H8           0.8020     0.2480    -2.7690 h1         1 9AM       0.128700
     26 H91          2.9840     1.3940    -2.5420 h1         1 9AM       0.029700
     27 H92          3.7440    -0.1200    -2.0800 h1         1 9AM       0.029700
     28 H111         2.7870    -0.2430     4.7840 hc         1 9AM       0.049367
     29 H112         2.8570    -1.5280     3.5700 hc         1 9AM       0.049367
     30 H113         3.8080    -0.0550     3.3680 hc         1 9AM       0.049367
     31 HN5          1.2460    -1.5010     2.1170 hn         1 9AM       0.293500
     32 HO4         -2.4650    -0.6690     3.4540 ho         1 9AM       0.434000
     33 HO7          0.7100     1.9800    -0.9640 ho         1 9AM       0.468000
     34 HO8          2.2040    -2.0280    -1.8870 ho         1 9AM       0.412000
     35 HN91         3.9290     0.4390    -4.4530 hn         1 9AM       0.387000
     36 HN92         3.1390    -0.9550    -4.2630 hn         1 9AM       0.387000
     37 C10          1.7320     0.2580     2.9950 c          1 9AM       0.608100
@<TRIPOS>BOND
     1     1     2 1   
     2     1    12 1   
     3     1    13 1   
     4     2     3 2   
     5     2    15 1   
     6     3     4 1   
     7     3    20 1   
     8     4     5 1   
     9     4    14 1   
    10     4    21 1   
    11     5     6 1   
    12     5    11 1   
    13     5    22 1   
    14     6     7 1   
    15     6    15 1   
    16     6    23 1   
    17     7     8 1   
    18     7    16 1   
    19     7    24 1   
    20     8     9 1   
    21     8    17 1   
    22     8    25 1   
    23     9    18 1   
    24     9    26 1   
    25     9    27 1   
    26    10    28 1   
    27    10    29 1   
    28    10    30 1   
    29    10    37 1   
    30    11    31 1   
    31    11    37 1   
    32    14    32 1   
    33    16    33 1   
    34    17    34 1   
    35    18    35 1   
    36    18    36 1   
    37    19    37 2   
@<TRIPOS>SUBSTRUCTURE
     1 9AM         1 TEMP              0 ****  ****    0 ROOT
