@<TRIPOS>MOLECULE
9AM
   37    37     1     0     0
SMALL
No Charge or Current Charge


@<TRIPOS>ATOM
      1 C1          -3.5020     0.3240    -1.3350 c          1 9AM       0.726200
      2 C2          -2.3390     0.0110    -0.3780 ce         1 9AM       0.049900
      3 C3          -2.5220    -0.4070     0.9040 c2         1 9AM      -0.427200
      4 C4          -1.3800    -0.6980     1.8460 c6         1 9AM       0.215500
      5 C5          -0.0630    -0.0270     1.3570 c6         1 9AM       0.076700
      6 C6           0.0870    -0.3260    -0.1620 c6         1 9AM       0.121300
      7 C7           1.3610     0.3260    -0.8070 c3         1 9AM       0.159300
      8 C8           1.7050    -0.2490    -2.2210 c3         1 9AM       0.129300
      9 C9           2.9540     0.4290    -2.8680 c3         1 9AM       0.118800
     10 C11          2.8270    -0.6130     3.8610 c3         1 9AM      -0.182100
     11 N5           1.1050    -0.5090     2.1330 ns         1 9AM      -0.495900
     12 O1A         -4.6530     0.1930    -0.9320 o          1 9AM      -0.694000
     13 O1B         -3.2470     0.7000    -2.4750 o          1 9AM      -0.694000
     14 O4          -1.7510    -0.2340     3.1400 oh         1 9AM      -0.658000
     15 O6          -1.0590     0.1710    -0.9030 os         1 9AM      -0.319100
     16 O7           1.1950     1.7560    -0.8910 oh         1 9AM      -0.659000
     17 O8           1.9280    -1.6780    -2.1410 oh         1 9AM      -0.637000
     18 N9           3.2850    -0.1150    -4.2090 n8         1 9AM      -0.985200
     19 O10          1.3800     1.2870     3.5160 o          1 9AM      -0.593100
     20 H3          -3.5290    -0.5400     1.3000 ha         1 9AM       0.207000
     21 H4          -1.2290    -1.7870     1.8740 h1         1 9AM       0.002700
     22 H5          -0.1580     1.0610     1.4840 h1         1 9AM       0.119700
     23 H6           0.1330    -1.4160    -0.2910 h1         1 9AM       0.043700
     24 H7           2.2180     0.1020    -0.1580 h1         1 9AM       0.048700
     25 H8           0.8450    -0.0450    -2.8760 h1         1 9AM       0.128700
     26 H91          2.7870     1.5100    -2.9700 h1         1 9AM       0.029700
     27 H92          3.8220     0.2820    -2.2100 h1         1 9AM       0.029700
     28 H111         3.2920    -0.0480     4.6770 hc         1 9AM       0.049367
     29 H112         2.4380    -1.5770     4.2060 hc         1 9AM       0.049367
     30 H113         3.5640    -0.9160     3.1090 hc         1 9AM       0.049367
     31 HN5          1.4500    -1.4440     1.9470 hn         1 9AM       0.293500
     32 HO4         -2.5270    -0.7680     3.4080 ho         1 9AM       0.434000
     33 HO7          0.2520     1.9030    -1.1300 ho         1 9AM       0.468000
     34 HO8          2.8100    -1.8140    -1.7350 ho         1 9AM       0.412000
     35 HN91         4.2170     0.2140    -4.4890 hn         1 9AM       0.387000
     36 HN92         3.3910    -1.1340    -4.1340 hn         1 9AM       0.387000
     37 C10          1.7050     0.1590     3.1750 c          1 9AM       0.608100
@<TRIPOS>BOND
     1     1     2 1   
     2     1    12 1   
     3     1    13 1   
     4     2     3 2   
     5     2    15 1   
     6     3     4 1   
     7     3    20 1   
     8     4     5 1   
     9     4    14 1   
    10     4    21 1   
    11     5     6 1   
    12     5    11 1   
    13     5    22 1   
    14     6     7 1   
    15     6    15 1   
    16     6    23 1   
    17     7     8 1   
    18     7    16 1   
    19     7    24 1   
    20     8     9 1   
    21     8    17 1   
    22     8    25 1   
    23     9    18 1   
    24     9    26 1   
    25     9    27 1   
    26    10    28 1   
    27    10    29 1   
    28    10    30 1   
    29    10    37 1   
    30    11    31 1   
    31    11    37 1   
    32    14    32 1   
    33    16    33 1   
    34    17    34 1   
    35    18    35 1   
    36    18    36 1   
    37    19    37 2   
@<TRIPOS>SUBSTRUCTURE
     1 9AM         1 TEMP              0 ****  ****    0 ROOT
