@<TRIPOS>MOLECULE
9AN
   28    30     1     0     0
SMALL
No Charge or Current Charge


@<TRIPOS>ATOM
      1 CAG         -2.4380     0.9270    -0.3610 ca         1 9AN      -0.093000
      2 CAB         -3.8420     0.9160    -0.3540 ca         1 9AN       0.136100
      3 OAA         -4.5300     2.0520    -0.6640 oh         1 9AN      -0.527100
      4 CAC         -4.5360    -0.2570    -0.0260 ca         1 9AN      -0.188000
      5 CAD         -3.8230    -1.4190     0.3040 ca         1 9AN      -0.072000
      6 CAE         -2.4170    -1.4130     0.2970 ca         1 9AN      -0.134000
      7 CAF         -1.6980    -0.2420    -0.0570 ca         1 9AN      -0.112900
      8 CAH         -0.2220    -0.2050    -0.0350 cc         1 9AN       0.557500
      9 NAI          0.4200     0.9530     0.1460 nd         1 9AN      -0.625100
     10 CAJ          1.8220     0.8610     0.1390 ca         1 9AN       0.189400
     11 CAO          2.5520     2.0480     0.3360 ca         1 9AN      -0.104000
     12 CAN          3.9570     2.0400     0.3440 ca         1 9AN      -0.075000
     13 CAM          4.6500     0.8350     0.1520 ca         1 9AN      -0.133000
     14 CAL          3.9360    -0.3570    -0.0470 ca         1 9AN      -0.040000
     15 CAK          2.5250    -0.3430    -0.0540 ca         1 9AN      -0.204600
     16 CAP          1.7470    -1.5850    -0.2670 c          1 9AN       0.578600
     17 OAQ          2.2470    -2.6830    -0.4550 o          1 9AN      -0.538000
     18 NAR          0.4100    -1.4040    -0.2430 ns         1 9AN      -0.427400
     19 H1          -1.9260     1.8510    -0.6180 ha         1 9AN       0.154000
     20 H2          -5.4900     1.8590    -0.6070 ho         1 9AN       0.468000
     21 H3          -5.6240    -0.2740    -0.0160 ha         1 9AN       0.117000
     22 H4          -4.3590    -2.3280     0.5740 ha         1 9AN       0.119000
     23 H5          -1.8970    -2.3240     0.5830 ha         1 9AN       0.118000
     24 H6           2.0220     2.9850     0.4850 ha         1 9AN       0.133000
     25 H7           4.5060     2.9670     0.4980 ha         1 9AN       0.117000
     26 H8           5.7380     0.8250     0.1570 ha         1 9AN       0.120000
     27 H9           4.4800    -1.2890    -0.1970 ha         1 9AN       0.135000
     28 H10         -0.1490    -2.2250    -0.4080 hn         1 9AN       0.332500
@<TRIPOS>BOND
     1     1     2 ar  
     2     1     7 ar  
     3     1    19 1   
     4     2     3 1   
     5     2     4 ar  
     6     3    20 1   
     7     4     5 ar  
     8     4    21 1   
     9     5     6 ar  
    10     5    22 1   
    11     6     7 ar  
    12     6    23 1   
    13     7     8 1   
    14     8     9 2   
    15     8    18 1   
    16     9    10 1   
    17    10    11 ar  
    18    10    15 ar  
    19    11    12 ar  
    20    11    24 1   
    21    12    13 ar  
    22    12    25 1   
    23    13    14 ar  
    24    13    26 1   
    25    14    15 ar  
    26    14    27 1   
    27    15    16 1   
    28    16    17 2   
    29    16    18 1   
    30    18    28 1   
@<TRIPOS>SUBSTRUCTURE
     1 9AN         1 TEMP              0 ****  ****    0 ROOT
