@<TRIPOS>MOLECULE
9AN
   28    30     1     0     0
SMALL
abcg2


@<TRIPOS>ATOM
      1 CAG         -2.3830     0.8920    -0.3670 ca         1 9AN      -0.093000
      2 CAB         -3.7730     0.9160    -0.3570 ca         1 9AN       0.136100
      3 OAA         -4.3790     2.0670    -0.6990 oh         1 9AN      -0.527100
      4 CAC         -4.4820    -0.2300    -0.0000 ca         1 9AN      -0.188000
      5 CAD         -3.7960    -1.3830     0.3450 ca         1 9AN      -0.072000
      6 CAE         -2.4100    -1.4180     0.3320 ca         1 9AN      -0.134000
      7 CAF         -1.7020    -0.2730    -0.0290 ca         1 9AN      -0.112900
      8 CAH         -0.2260    -0.2520    -0.0450 cc         1 9AN       0.557500
      9 NAI          0.4010     0.8530     0.1550 nd         1 9AN      -0.625100
     10 CAJ          1.7740     0.8300     0.1410 ca         1 9AN       0.189400
     11 CAO          2.4680     2.0290     0.3510 ca         1 9AN      -0.104000
     12 CAN          3.8460     2.0400     0.3540 ca         1 9AN      -0.075000
     13 CAM          4.5710     0.8600     0.1490 ca         1 9AN      -0.133000
     14 CAL          3.9040    -0.3270    -0.0590 ca         1 9AN      -0.040000
     15 CAK          2.5060    -0.3510    -0.0640 ca         1 9AN      -0.204600
     16 CAP          1.7820    -1.5940    -0.2940 c          1 9AN       0.578600
     17 OAQ          2.2880    -2.6820    -0.4990 o          1 9AN      -0.538000
     18 NAR          0.4140    -1.4360    -0.2740 ns         1 9AN      -0.427400
     19 H1          -1.8320     1.7810    -0.6460 ha         1 9AN       0.154000
     20 H2          -5.3370     1.9720    -0.6530 ho         1 9AN       0.468000
     21 H3          -5.5660    -0.2210     0.0120 ha         1 9AN       0.117000
     22 H4          -4.3510    -2.2650     0.6350 ha         1 9AN       0.119000
     23 H5          -1.9040    -2.3250     0.6380 ha         1 9AN       0.118000
     24 H6           1.9030     2.9380     0.5130 ha         1 9AN       0.133000
     25 H7           4.3730     2.9700     0.5200 ha         1 9AN       0.117000
     26 H8           5.6520     0.8820     0.1550 ha         1 9AN       0.120000
     27 H9           4.4550    -1.2440    -0.2220 ha         1 9AN       0.135000
     28 H10         -0.1350    -2.2600    -0.4850 hn         1 9AN       0.332500
@<TRIPOS>BOND
     1     1     2 ar  
     2     1     7 ar  
     3     1    19 1   
     4     2     3 1   
     5     2     4 ar  
     6     3    20 1   
     7     4     5 ar  
     8     4    21 1   
     9     5     6 ar  
    10     5    22 1   
    11     6     7 ar  
    12     6    23 1   
    13     7     8 1   
    14     8     9 2   
    15     8    18 1   
    16     9    10 1   
    17    10    11 ar  
    18    10    15 ar  
    19    11    12 ar  
    20    11    24 1   
    21    12    13 ar  
    22    12    25 1   
    23    13    14 ar  
    24    13    26 1   
    25    14    15 ar  
    26    14    27 1   
    27    15    16 1   
    28    16    17 2   
    29    16    18 1   
    30    18    28 1   
@<TRIPOS>SUBSTRUCTURE
     1 9AN         1 TEMP              0 ****  ****    0 ROOT
