@<TRIPOS>MOLECULE
9AP
   26    28     1     0     0
SMALL
abcg2


@<TRIPOS>ATOM
      1 C1          -1.0350    -0.0720    -3.3220 ca         1 9AP      -0.115000
      2 C2           0.2260    -0.0840    -2.7760 ca         1 9AP      -0.095000
      3 C3          -1.9850     0.0270    -1.1190 ca         1 9AP      -0.105000
      4 C4           0.4200    -0.0250    -1.3830 ca         1 9AP      -0.051000
      5 C5          -2.1510    -0.0090    -2.4830 ca         1 9AP      -0.102000
      6 C6          -0.7070     0.0120    -0.5290 ca         1 9AP       0.004000
      7 C7           1.7540    -0.0150    -0.8190 ca         1 9AP       0.293000
      8 C8           1.9030    -0.0150     0.5360 ca         1 9AP      -0.196000
      9 N1           2.8410    -0.0690    -1.6670 nv         1 9AP      -1.062000
     10 C9           0.7880    -0.0140     1.4210 ca         1 9AP       0.007000
     11 C10          0.9860    -0.0200     2.8170 ca         1 9AP      -0.112000
     12 C11         -0.5270     0.0160     0.9090 ca         1 9AP      -0.049000
     13 C12         -0.0800     0.0030     3.6820 ca         1 9AP      -0.098000
     14 C13         -1.3870     0.0340     3.1770 ca         1 9AP      -0.123000
     15 C14         -1.6000     0.0400     1.8180 ca         1 9AP      -0.087000
     16 H1          -1.1600    -0.1180    -4.3960 ha         1 9AP       0.114000
     17 H2           1.0750    -0.1520    -3.4430 ha         1 9AP       0.112000
     18 H3          -2.8680     0.0650    -0.4960 ha         1 9AP       0.113000
     19 H5          -3.1480     0.0030    -2.9040 ha         1 9AP       0.113000
     20 H8           2.9000    -0.0050     0.9630 ha         1 9AP       0.111000
     21 HN11         3.7270     0.0900    -1.2120 hn         1 9AP       0.442500
     22 HN12         2.7750     0.4880    -2.5060 hn         1 9AP       0.442500
     23 H10          1.9980    -0.0430     3.2020 ha         1 9AP       0.111000
     24 H12          0.0860    -0.0020     4.7510 ha         1 9AP       0.111000
     25 H13         -2.2300     0.0540     3.8550 ha         1 9AP       0.112000
     26 H14         -2.6200     0.0640     1.4600 ha         1 9AP       0.109000
@<TRIPOS>BOND
     1     1     2 ar  
     2     1     5 ar  
     3     1    16 1   
     4     2     4 ar  
     5     2    17 1   
     6     3     5 ar  
     7     3     6 ar  
     8     3    18 1   
     9     4     6 ar  
    10     4     7 ar  
    11     5    19 1   
    12     6    12 ar  
    13     7     8 ar  
    14     7     9 1   
    15     8    10 ar  
    16     8    20 1   
    17     9    21 1   
    18     9    22 1   
    19    10    11 ar  
    20    10    12 ar  
    21    11    13 ar  
    22    11    23 1   
    23    12    15 ar  
    24    13    14 ar  
    25    13    24 1   
    26    14    15 ar  
    27    14    25 1   
    28    15    26 1   
@<TRIPOS>SUBSTRUCTURE
     1 9AP         1 TEMP              0 ****  ****    0 ROOT
