@<TRIPOS>MOLECULE
9AP
   26    28     1     0     0
SMALL
No Charge or Current Charge


@<TRIPOS>ATOM
      1 C1          -1.0470    -0.0230    -3.3460 ca         1 9AP      -0.115000
      2 C2           0.2380    -0.0230    -2.7880 ca         1 9AP      -0.095000
      3 C3          -2.0080    -0.0010    -1.1170 ca         1 9AP      -0.105000
      4 C4           0.4210    -0.0120    -1.3820 ca         1 9AP      -0.051000
      5 C5          -2.1680    -0.0110    -2.5110 ca         1 9AP      -0.102000
      6 C6          -0.7170    -0.0020    -0.5240 ca         1 9AP       0.004000
      7 C7           1.7260    -0.0110    -0.8250 ca         1 9AP       0.293000
      8 C8           1.8940    -0.0050     0.5600 ca         1 9AP      -0.196000
      9 N1           2.8660    -0.0140    -1.5970 nv         1 9AP      -1.062000
     10 C9           0.7850     0.0040     1.4180 ca         1 9AP       0.007000
     11 C10          1.0100     0.0110     2.8080 ca         1 9AP      -0.112000
     12 C11         -0.5310     0.0060     0.8930 ca         1 9AP      -0.049000
     13 C12         -0.0700     0.0200     3.7000 ca         1 9AP      -0.098000
     14 C13         -1.3780     0.0230     3.2030 ca         1 9AP      -0.123000
     15 C14         -1.6110     0.0160     1.8170 ca         1 9AP      -0.087000
     16 H1          -1.1730    -0.0320    -4.4270 ha         1 9AP       0.114000
     17 H2           1.0860    -0.0350    -3.4670 ha         1 9AP       0.112000
     18 H3          -2.9140     0.0070    -0.5250 ha         1 9AP       0.113000
     19 H5          -3.1660    -0.0100    -2.9420 ha         1 9AP       0.113000
     20 H8           2.8960    -0.0060     0.9790 ha         1 9AP       0.111000
     21 HN11         3.7730     0.1240    -1.1550 hn         1 9AP       0.442500
     22 HN12         2.8040     0.1450    -2.5990 hn         1 9AP       0.442500
     23 H10          2.0240     0.0090     3.1990 ha         1 9AP       0.111000
     24 H12          0.1080     0.0260     4.7740 ha         1 9AP       0.111000
     25 H13         -2.2200     0.0300     3.8930 ha         1 9AP       0.112000
     26 H14         -2.6460     0.0180     1.4970 ha         1 9AP       0.109000
@<TRIPOS>BOND
     1     1     2 ar  
     2     1     5 ar  
     3     1    16 1   
     4     2     4 ar  
     5     2    17 1   
     6     3     5 ar  
     7     3     6 ar  
     8     3    18 1   
     9     4     6 ar  
    10     4     7 ar  
    11     5    19 1   
    12     6    12 ar  
    13     7     8 ar  
    14     7     9 1   
    15     8    10 ar  
    16     8    20 1   
    17     9    21 1   
    18     9    22 1   
    19    10    11 ar  
    20    10    12 ar  
    21    11    13 ar  
    22    11    23 1   
    23    12    15 ar  
    24    13    14 ar  
    25    13    24 1   
    26    14    15 ar  
    27    14    25 1   
    28    15    26 1   
@<TRIPOS>SUBSTRUCTURE
     1 9AP         1 TEMP              0 ****  ****    0 ROOT
