@<TRIPOS>MOLECULE
9AQ
   34    36     1     0     0
SMALL
bcc


@<TRIPOS>ATOM
      1 CAA          7.2140     0.0360     0.0160 c3         1 9AQ      -0.095100
      2 CAB          5.8120    -0.5040    -0.1220 c3         1 9AQ       0.141400
      3 OAC          4.9010     0.5720     0.0840 os         1 9AQ      -0.319900
      4 CAD          3.5860     0.3310     0.0460 ca         1 9AQ       0.176100
      5 CAI          2.7450     1.4250     0.2830 ca         1 9AQ      -0.204500
      6 CAH          1.3780     1.2680     0.2710 ca         1 9AQ      -0.049500
      7 CAE          3.0200    -0.9170    -0.2100 ca         1 9AQ      -0.204500
      8 CAF          1.6410    -1.0620    -0.2120 ca         1 9AQ      -0.049500
      9 CAG          0.7970     0.0170     0.0310 ca         1 9AQ      -0.199900
     10 CAJ         -0.6670    -0.1050     0.0380 cc         1 9AQ       0.574500
     11 NAK         -1.3980     0.9430    -0.1270 nd         1 9AQ      -0.639100
     12 CAL         -2.7610     0.7960    -0.1010 ca         1 9AQ       0.195400
     13 CAQ         -3.5650     1.9340    -0.2670 ca         1 9AQ      -0.126000
     14 CAP         -4.9380     1.8210    -0.2490 ca         1 9AQ      -0.092000
     15 CAO         -5.5520     0.5770    -0.0670 ca         1 9AQ      -0.155000
     16 CAN         -4.7780    -0.5510     0.0950 ca         1 9AQ      -0.057000
     17 CAM         -3.3850    -0.4500     0.0780 ca         1 9AQ      -0.207600
     18 CAR         -2.5490    -1.6280     0.2610 c          1 9AQ       0.721100
     19 OAS         -2.9510    -2.7640     0.4370 o          1 9AQ      -0.616500
     20 NAT         -1.2000    -1.3480     0.2350 ns         1 9AQ      -0.495400
     21 H1           7.4170     0.8150    -0.7180 hc         1 9AQ       0.049700
     22 H2           7.3890     0.4410     1.0130 hc         1 9AQ       0.049700
     23 H3           7.9270    -0.7710    -0.1470 hc         1 9AQ       0.049700
     24 H4           5.6630    -0.9350    -1.1180 h1         1 9AQ       0.036700
     25 H5           5.6300    -1.2940     0.6140 h1         1 9AQ       0.036700
     26 H6           3.1800     2.3960     0.4840 ha         1 9AQ       0.146000
     27 H7           0.7430     2.1230     0.4600 ha         1 9AQ       0.144000
     28 H8           3.6310    -1.7860    -0.4120 ha         1 9AQ       0.146000
     29 H9           1.2480    -2.0450    -0.4390 ha         1 9AQ       0.144000
     30 H10         -3.0870     2.8940    -0.4090 ha         1 9AQ       0.149000
     31 H11         -5.5490     2.7050    -0.3780 ha         1 9AQ       0.134000
     32 H12         -6.6310     0.5030    -0.0540 ha         1 9AQ       0.137000
     33 H13         -5.2420    -1.5180     0.2400 ha         1 9AQ       0.152000
     34 H14         -0.5840    -2.1300     0.4110 hn         1 9AQ       0.329500
@<TRIPOS>BOND
     1     1     2 1   
     2     1    21 1   
     3     1    22 1   
     4     1    23 1   
     5     2     3 1   
     6     2    24 1   
     7     2    25 1   
     8     3     4 1   
     9     4     5 ar  
    10     4     7 ar  
    11     5     6 ar  
    12     5    26 1   
    13     6     9 ar  
    14     6    27 1   
    15     7     8 ar  
    16     7    28 1   
    17     8     9 ar  
    18     8    29 1   
    19     9    10 1   
    20    10    11 2   
    21    10    20 1   
    22    11    12 1   
    23    12    13 ar  
    24    12    17 ar  
    25    13    14 ar  
    26    13    30 1   
    27    14    15 ar  
    28    14    31 1   
    29    15    16 ar  
    30    15    32 1   
    31    16    17 ar  
    32    16    33 1   
    33    17    18 1   
    34    18    19 2   
    35    18    20 1   
    36    20    34 1   
@<TRIPOS>SUBSTRUCTURE
     1 9AQ         1 TEMP              0 ****  ****    0 ROOT
