@<TRIPOS>MOLECULE
9AQ
   34    36     1     0     0
SMALL
No Charge or Current Charge


@<TRIPOS>ATOM
      1 CAA          7.3140    -0.0000    -0.0670 c3         1 9AQ      -0.095100
      2 CAB          5.8890    -0.5590    -0.2030 c3         1 9AQ       0.164600
      3 OAC          4.9740     0.4950     0.1410 os         1 9AQ      -0.343100
      4 CAD          3.6060     0.3170     0.1230 ca         1 9AQ       0.176100
      5 CAI          2.7980     1.4060     0.4730 ca         1 9AQ      -0.186500
      6 CAH          1.3980     1.2880     0.4730 ca         1 9AQ      -0.031500
      7 CAE          3.0010    -0.9030    -0.2410 ca         1 9AQ      -0.186500
      8 CAF          1.6000    -1.0260    -0.2420 ca         1 9AQ      -0.031500
      9 CAG          0.7780     0.0630     0.1380 ca         1 9AQ      -0.199900
     10 CAJ         -0.6900    -0.0410     0.1030 cc         1 9AQ       0.574500
     11 NAK         -1.4320     1.0440    -0.1340 nd         1 9AQ      -0.639100
     12 CAL         -2.8190     0.8220    -0.1330 ca         1 9AQ       0.195400
     13 CAQ         -3.6540     1.9250    -0.3890 ca         1 9AQ      -0.108000
     14 CAP         -5.0530     1.7850    -0.4070 ca         1 9AQ      -0.074000
     15 CAO         -5.6320     0.5290    -0.1660 ca         1 9AQ      -0.137000
     16 CAN         -4.8130    -0.5810     0.0920 ca         1 9AQ      -0.039000
     17 CAM         -3.4090    -0.4340     0.1090 ca         1 9AQ      -0.207600
     18 CAR         -2.5210    -1.5860     0.3850 c          1 9AQ       0.578600
     19 OAS         -2.9180    -2.7170     0.6210 o          1 9AQ      -0.541000
     20 NAT         -1.2060    -1.2820     0.3610 ns         1 9AQ      -0.428400
     21 H1           7.4610     0.8510    -0.7420 hc         1 9AQ       0.049700
     22 H2           7.5020     0.3300     0.9620 hc         1 9AQ       0.049700
     23 H3           8.0490    -0.7720    -0.3200 hc         1 9AQ       0.049700
     24 H4           5.7260    -0.8950    -1.2360 h1         1 9AQ       0.036700
     25 H5           5.7660    -1.4170     0.4710 h1         1 9AQ       0.036700
     26 H6           3.2610     2.3520     0.7450 ha         1 9AQ       0.128000
     27 H7           0.7980     2.1540     0.7480 ha         1 9AQ       0.126000
     28 H8           3.5980    -1.7620    -0.5340 ha         1 9AQ       0.128000
     29 H9           1.1650    -1.9730    -0.5550 ha         1 9AQ       0.126000
     30 H10         -3.2130     2.9000    -0.5760 ha         1 9AQ       0.131000
     31 H11         -5.6840     2.6480    -0.6070 ha         1 9AQ       0.116000
     32 H12         -6.7140     0.4170    -0.1790 ha         1 9AQ       0.119000
     33 H13         -5.2690    -1.5520     0.2800 ha         1 9AQ       0.134000
     34 H14         -0.5750    -2.0370     0.5730 hn         1 9AQ       0.329500
@<TRIPOS>BOND
     1     1     2 1   
     2     1    21 1   
     3     1    22 1   
     4     1    23 1   
     5     2     3 1   
     6     2    24 1   
     7     2    25 1   
     8     3     4 1   
     9     4     5 ar  
    10     4     7 ar  
    11     5     6 ar  
    12     5    26 1   
    13     6     9 ar  
    14     6    27 1   
    15     7     8 ar  
    16     7    28 1   
    17     8     9 ar  
    18     8    29 1   
    19     9    10 1   
    20    10    11 2   
    21    10    20 1   
    22    11    12 1   
    23    12    13 ar  
    24    12    17 ar  
    25    13    14 ar  
    26    13    30 1   
    27    14    15 ar  
    28    14    31 1   
    29    15    16 ar  
    30    15    32 1   
    31    16    17 ar  
    32    16    33 1   
    33    17    18 1   
    34    18    19 2   
    35    18    20 1   
    36    20    34 1   
@<TRIPOS>SUBSTRUCTURE
     1 9AQ         1 TEMP              0 ****  ****    0 ROOT
