@<TRIPOS>MOLECULE
9AR
   36    39     1     0     0
SMALL
abcg2


@<TRIPOS>ATOM
      1 C1           0.0790     0.1950     2.4070 ca         1 9AR      -0.084600
      2 C2          -1.1580     0.2100     3.0350 ca         1 9AR      -0.074000
      3 C3          -2.2810     0.0560     2.2530 ca         1 9AR       0.052100
      4 C4          -2.2160    -0.0700     0.8870 ca         1 9AR       0.011100
      5 C5          -1.0060    -0.1170     0.1970 ca         1 9AR      -0.007000
      6 C6           0.1650    -0.0450     1.0180 ca         1 9AR      -0.014000
      7 C7          -0.9050    -0.1800    -1.2490 ca         1 9AR      -0.022000
      8 C8           0.3770    -0.1800    -1.8400 ca         1 9AR      -0.013000
      9 C9           1.5320    -0.2740    -1.0100 ca         1 9AR      -0.105000
     10 C10          1.4140    -0.2440     0.3330 ca         1 9AR      -0.046200
     11 C11         -2.0150    -0.2150    -2.1120 ca         1 9AR      -0.061000
     12 C12         -1.8610    -0.2450    -3.4780 ca         1 9AR      -0.147000
     13 C13         -0.5910    -0.2230    -4.0610 ca         1 9AR       0.121100
     14 C14          0.5210    -0.1850    -3.2380 ca         1 9AR       0.001100
     15 C15         -4.3410    -0.2460     1.5080 c5         1 9AR       0.375600
     16 C16          1.2690     0.6370     3.2540 c          1 9AR       0.716600
     17 C17          2.3370     1.1220    -3.9390 c3         1 9AR       0.138900
     18 O1           1.7560    -0.1780    -3.8120 os         1 9AR      -0.371100
     19 O2          -3.5750     0.0950     2.6520 os         1 9AR      -0.349100
     20 O3          -3.4790    -0.0960     0.3880 os         1 9AR      -0.365100
     21 O4           2.1340     1.3020     2.6530 o          1 9AR      -0.696000
     22 O5           1.2320     0.3630     4.4650 o          1 9AR      -0.696000
     23 O6          -0.4950    -0.2460    -5.4000 oh         1 9AR      -0.541100
     24 O7           2.4670    -1.4860     1.9260 o          1 9AR      -0.395000
     25 O8           3.6810    -0.2470     0.6810 o          1 9AR      -0.395000
     26 N1           2.6110    -0.6620     1.0540 no         1 9AR       0.718200
     27 H21         -1.2330     0.3790     4.1000 ha         1 9AR       0.157000
     28 H91          2.4920    -0.4660    -1.4680 ha         1 9AR       0.145000
     29 H111        -3.0200    -0.2240    -1.7240 ha         1 9AR       0.135000
     30 H121        -2.7340    -0.2770    -4.1180 ha         1 9AR       0.120000
     31 H151        -4.6780    -1.2860     1.5800 h2         1 9AR       0.048200
     32 H152        -5.1900     0.4280     1.4110 h2         1 9AR       0.048200
     33 H171         3.3060     0.9920    -4.4140 h1         1 9AR       0.039700
     34 H172         1.7190     1.7770    -4.5570 h1         1 9AR       0.039700
     35 H173         2.4800     1.5930    -2.9630 h1         1 9AR       0.039700
     36 H61          0.4270    -0.3600    -5.6640 ho         1 9AR       0.474000
@<TRIPOS>BOND
     1     1     2 ar  
     2     1     6 ar  
     3     1    16 1   
     4     2     3 ar  
     5     2    27 1   
     6     3     4 ar  
     7     3    19 1   
     8     4     5 ar  
     9     4    20 1   
    10     5     6 ar  
    11     5     7 ar  
    12     6    10 ar  
    13     7     8 ar  
    14     7    11 ar  
    15     8     9 ar  
    16     8    14 ar  
    17     9    10 ar  
    18     9    28 1   
    19    10    26 1   
    20    11    12 ar  
    21    11    29 1   
    22    12    13 ar  
    23    12    30 1   
    24    13    14 ar  
    25    13    23 1   
    26    14    18 1   
    27    15    19 1   
    28    15    20 1   
    29    15    31 1   
    30    15    32 1   
    31    16    21 1   
    32    16    22 1   
    33    17    18 1   
    34    17    33 1   
    35    17    34 1   
    36    17    35 1   
    37    23    36 1   
    38    24    26 1   
    39    25    26 1   
@<TRIPOS>SUBSTRUCTURE
     1 9AR         1 TEMP              0 ****  ****    0 ROOT
