@<TRIPOS>MOLECULE
9AR
   36    39     1     0     0
SMALL
No Charge or Current Charge


@<TRIPOS>ATOM
      1 C1           0.0560     0.1630     2.4370 ca         1 9AR      -0.084600
      2 C2          -1.2070     0.1910     3.0530 ca         1 9AR      -0.074000
      3 C3          -2.3400     0.0690     2.2690 ca         1 9AR       0.052100
      4 C4          -2.2750    -0.0350     0.9060 ca         1 9AR       0.011100
      5 C5          -1.0320    -0.0580     0.1990 ca         1 9AR      -0.007000
      6 C6           0.1660    -0.0130     1.0070 ca         1 9AR      -0.014000
      7 C7          -0.9320    -0.1270    -1.2400 ca         1 9AR      -0.022000
      8 C8           0.3520    -0.1910    -1.8460 ca         1 9AR      -0.013000
      9 C9           1.4990    -0.2270    -1.0460 ca         1 9AR      -0.105000
     10 C10          1.4300    -0.1500     0.3520 ca         1 9AR      -0.046200
     11 C11         -2.0540    -0.1280    -2.1200 ca         1 9AR      -0.061000
     12 C12         -1.9060    -0.2090    -3.5140 ca         1 9AR      -0.147000
     13 C13         -0.6370    -0.2760    -4.0820 ca         1 9AR       0.121100
     14 C14          0.4960    -0.2520    -3.2580 ca         1 9AR       0.001100
     15 C15         -4.4000    -0.2110     1.5690 c5         1 9AR       0.375600
     16 C16          1.2110     0.4260     3.3740 c          1 9AR       0.716600
     17 C17          2.4590     0.9440    -4.0510 c3         1 9AR       0.138900
     18 O1           1.7400    -0.2880    -3.8560 os         1 9AR      -0.371100
     19 O2          -3.6080     0.1000     2.7530 os         1 9AR      -0.349100
     20 O3          -3.5370    -0.0920     0.3920 os         1 9AR      -0.365100
     21 O4           1.8560     1.4500     3.2090 o          1 9AR      -0.696000
     22 O5           1.3620    -0.3250     4.3270 o          1 9AR      -0.696000
     23 O6          -0.4960    -0.3600    -5.4360 oh         1 9AR      -0.541100
     24 O7           2.8790    -1.3880     1.6890 o          1 9AR      -0.395000
     25 O8           3.6740     0.3950     0.7160 o          1 9AR      -0.395000
     26 N1           2.7290    -0.3290     1.0630 no         1 9AR       0.718200
     27 H21         -1.3040     0.3250     4.1280 ha         1 9AR       0.157000
     28 H91          2.4750    -0.3470    -1.5100 ha         1 9AR       0.145000
     29 H111        -3.0740    -0.0620    -1.7800 ha         1 9AR       0.135000
     30 H121        -2.7860    -0.2160    -4.1520 ha         1 9AR       0.120000
     31 H151        -4.7560    -1.2450     1.6430 h2         1 9AR       0.048200
     32 H152        -5.2470     0.4810     1.4880 h2         1 9AR       0.048200
     33 H171         3.4290     0.7490    -4.5260 h1         1 9AR       0.039700
     34 H172         1.8910     1.6260    -4.6970 h1         1 9AR       0.039700
     35 H173         2.6410     1.4490    -3.0940 h1         1 9AR       0.039700
     36 H61          0.4670    -0.4410    -5.6090 ho         1 9AR       0.474000
@<TRIPOS>BOND
     1     1     2 ar  
     2     1     6 ar  
     3     1    16 1   
     4     2     3 ar  
     5     2    27 1   
     6     3     4 ar  
     7     3    19 1   
     8     4     5 ar  
     9     4    20 1   
    10     5     6 ar  
    11     5     7 ar  
    12     6    10 ar  
    13     7     8 ar  
    14     7    11 ar  
    15     8     9 ar  
    16     8    14 ar  
    17     9    10 ar  
    18     9    28 1   
    19    10    26 1   
    20    11    12 ar  
    21    11    29 1   
    22    12    13 ar  
    23    12    30 1   
    24    13    14 ar  
    25    13    23 1   
    26    14    18 1   
    27    15    19 1   
    28    15    20 1   
    29    15    31 1   
    30    15    32 1   
    31    16    21 1   
    32    16    22 1   
    33    17    18 1   
    34    17    33 1   
    35    17    34 1   
    36    17    35 1   
    37    23    36 1   
    38    24    26 1   
    39    25    26 1   
@<TRIPOS>SUBSTRUCTURE
     1 9AR         1 TEMP              0 ****  ****    0 ROOT
