@<TRIPOS>MOLECULE
9AT
   18    17     1     0     0
SMALL
No Charge or Current Charge


@<TRIPOS>ATOM
      1 N           20.2480    -7.6290   -14.6240 n8         1 9AT      -1.021200
      2 CA          20.4750    -6.8980   -15.9420 c3         1 9AT       0.044500
      3 C           21.6550    -5.8550   -15.9620 c          1 9AT       0.604100
      4 O           22.2560    -5.4890   -14.9630 o          1 9AT      -0.597100
      5 CB          19.1490    -6.2290   -16.4130 c3         1 9AT       0.185300
      6 OG1         18.4560    -5.9030   -15.2160 oh         1 9AT      -0.655000
      7 CG2         18.2600    -7.1700   -17.2520 c3         1 9AT      -0.125100
      8 NXT         22.0200    -5.3750   -17.1750 nt         1 9AT      -0.605000
      9 HN1         19.8040    -8.5410   -14.8080 hn         1 9AT       0.422000
     10 HN2         21.1610    -7.9020   -14.2300 hn         1 9AT       0.422000
     11 HA          20.7630    -7.6540   -16.6860 h1         1 9AT       0.039700
     12 HB          19.3560    -5.3260   -17.0060 h1         1 9AT       0.057700
     13 HXT1        21.5500    -5.6900   -18.0110 hn         1 9AT       0.315000
     14 HXT2        22.7800    -4.7140   -17.2330 hn         1 9AT       0.315000
     15 HG1         18.9610    -6.4800   -14.5770 ho         1 9AT       0.472000
     16 HG21        18.7740    -7.4580   -18.1760 hc         1 9AT       0.041700
     17 HG22        18.0130    -8.0830   -16.6960 hc         1 9AT       0.041700
     18 HG23        17.3230    -6.6700   -17.5270 hc         1 9AT       0.041700
@<TRIPOS>BOND
     1     1     2 1   
     2     1     9 1   
     3     1    10 1   
     4     2     3 1   
     5     2     5 1   
     6     2    11 1   
     7     3     4 2   
     8     3     8 1   
     9     5     6 1   
    10     5     7 1   
    11     5    12 1   
    12     6    15 1   
    13     7    16 1   
    14     7    17 1   
    15     7    18 1   
    16     8    13 1   
    17     8    14 1   
@<TRIPOS>SUBSTRUCTURE
     1 9AT         1 TEMP              0 ****  ****    0 ROOT
