@<TRIPOS>MOLECULE
9AT
   18    17     1     0     0
SMALL
abcg2


@<TRIPOS>ATOM
      1 N           20.2500    -7.7240   -14.9210 n8         1 9AT      -1.021200
      2 CA          20.5240    -6.9840   -16.1380 c3         1 9AT       0.044500
      3 C           21.6310    -5.9620   -15.8790 c          1 9AT       0.604100
      4 O           22.1370    -5.8140   -14.7770 o          1 9AT      -0.597100
      5 CB          19.2210    -6.2730   -16.5640 c3         1 9AT       0.185300
      6 OG1         18.7640    -5.4930   -15.4850 oh         1 9AT      -0.655000
      7 CG2         18.1720    -7.2720   -17.0320 c3         1 9AT      -0.125100
      8 NXT         22.0080    -5.2540   -16.9530 nt         1 9AT      -0.605000
      9 HN1         19.9840    -8.6750   -15.1320 hn         1 9AT       0.422000
     10 HN2         21.0710    -7.7600   -14.3320 hn         1 9AT       0.422000
     11 HA          20.8590    -7.6220   -16.9680 h1         1 9AT       0.039700
     12 HB          19.4290    -5.5840   -17.3870 h1         1 9AT       0.057700
     13 HXT1        21.6380    -5.4310   -17.8710 hn         1 9AT       0.315000
     14 HXT2        22.7490    -4.5760   -16.8790 hn         1 9AT       0.315000
     15 HG1         18.8630    -6.0690   -14.7110 ho         1 9AT       0.472000
     16 HG21        18.5270    -7.8310   -17.8990 hc         1 9AT       0.041700
     17 HG22        17.9200    -7.9880   -16.2480 hc         1 9AT       0.041700
     18 HG23        17.2570    -6.7550   -17.3210 hc         1 9AT       0.041700
@<TRIPOS>BOND
     1     1     2 1   
     2     1     9 1   
     3     1    10 1   
     4     2     3 1   
     5     2     5 1   
     6     2    11 1   
     7     3     4 2   
     8     3     8 1   
     9     5     6 1   
    10     5     7 1   
    11     5    12 1   
    12     6    15 1   
    13     7    16 1   
    14     7    17 1   
    15     7    18 1   
    16     8    13 1   
    17     8    14 1   
@<TRIPOS>SUBSTRUCTURE
     1 9AT         1 TEMP              0 ****  ****    0 ROOT
