@<TRIPOS>MOLECULE
9AU
   57    58     1     0     0
SMALL
bcc


@<TRIPOS>ATOM
      1 OAE          3.0310     0.6560     2.7680 o          1 9AU      -0.563500
      2 CAY          3.5630     0.3080     1.7390 c          1 9AU       0.762800
      3 OAS          4.4150    -0.7510     1.8290 os         1 9AU      -0.336200
      4 CAZ          5.0610    -1.2690     0.7660 ca         1 9AU       0.190100
      5 CBA          4.8960    -0.7350    -0.5110 ca         1 9AU      -0.196800
      6 CAM          5.5890    -1.3280    -1.5730 ca         1 9AU      -0.083000
      7 CAK          6.4190    -2.4080    -1.3550 ca         1 9AU      -0.153000
      8 CAJ          6.5700    -2.9220    -0.0680 ca         1 9AU      -0.076000
      9 CAL          5.8930    -2.3570     0.9960 ca         1 9AU      -0.148000
     10 CAW          4.0090     0.4030    -0.6400 cc         1 9AU       0.233900
     11 OAF          3.7920     0.9650    -1.8230 oh         1 9AU      -0.473100
     12 CAX          3.3740     0.9160     0.4480 cd         1 9AU      -0.279400
     13 CAP          2.4170     2.0740     0.3580 c3         1 9AU       0.033000
     14 CAI          1.0010     1.5910     0.2150 c2         1 9AU      -0.165200
     15 CAV          0.1890     1.7270    -0.8360 c2         1 9AU      -0.112400
     16 CAD          0.5530     2.4140    -2.1190 c3         1 9AU      -0.052900
     17 CAR         -1.2060     1.1580    -0.7840 c3         1 9AU      -0.037200
     18 CAO         -2.3060     2.2310    -0.7680 c3         1 9AU      -0.036200
     19 CAH         -3.6720     1.6170    -0.7380 c2         1 9AU      -0.172200
     20 CAU         -4.4830     1.4760     0.3140 c2         1 9AU      -0.111400
     21 CAC         -4.1680     1.9640     1.6980 c3         1 9AU      -0.055900
     22 CAQ         -5.8070     0.7730     0.1670 c3         1 9AU      -0.038200
     23 CAN         -5.8000    -0.6490     0.7530 c3         1 9AU      -0.036200
     24 CAG         -7.1690    -1.2530     0.7490 c2         1 9AU      -0.173200
     25 CAT         -7.6330    -2.2380    -0.0240 c2         1 9AU      -0.113400
     26 CAB         -6.8240    -2.9650    -1.0570 c3         1 9AU      -0.055900
     27 CAA         -9.0560    -2.7040     0.0880 c3         1 9AU      -0.055900
     28 H1           5.4890    -0.9600    -2.5860 ha         1 9AU       0.127000
     29 H2           6.9490    -2.8540    -2.1840 ha         1 9AU       0.141000
     30 H3           7.2180    -3.7710     0.1030 ha         1 9AU       0.142000
     31 H4           6.0000    -2.7500     1.9980 ha         1 9AU       0.160000
     32 H5           4.3450     0.5960    -2.5210 ho         1 9AU       0.437000
     33 H6           2.4990     2.6710     1.2690 hc         1 9AU       0.061700
     34 H7           2.7000     2.7320    -0.4610 hc         1 9AU       0.061700
     35 H8           0.6190     1.0540     1.0800 ha         1 9AU       0.125000
     36 H9           0.4630     1.7180    -2.9570 hc         1 9AU       0.038033
     37 H10         -0.1260     3.2430    -2.3310 hc         1 9AU       0.038033
     38 H11          1.5660     2.8090    -2.1300 hc         1 9AU       0.038033
     39 H12         -1.3650     0.5040    -1.6500 hc         1 9AU       0.045200
     40 H13         -1.3210     0.5310     0.1030 hc         1 9AU       0.045200
     41 H14         -2.1440     2.8920     0.0860 hc         1 9AU       0.045200
     42 H15         -2.2220     2.8570    -1.6600 hc         1 9AU       0.045200
     43 H16         -4.0140     1.2120    -1.6890 ha         1 9AU       0.113000
     44 H17         -4.8900     2.7240     2.0110 hc         1 9AU       0.040033
     45 H18         -4.2410     1.1540     2.4260 hc         1 9AU       0.040033
     46 H19         -3.1730     2.3950     1.7900 hc         1 9AU       0.040033
     47 H20         -6.5900     1.3560     0.6650 hc         1 9AU       0.044200
     48 H21         -6.0860     0.7110    -0.8870 hc         1 9AU       0.044200
     49 H22         -5.0850    -1.2560     0.1940 hc         1 9AU       0.046200
     50 H23         -5.4340    -0.6130     1.7840 hc         1 9AU       0.046200
     51 H24         -7.8670    -0.7950     1.4480 ha         1 9AU       0.114000
     52 H25         -6.8080    -4.0380    -0.8490 hc         1 9AU       0.038367
     53 H26         -7.2760    -2.8510    -2.0460 hc         1 9AU       0.038367
     54 H27         -5.7930    -2.6220    -1.1230 hc         1 9AU       0.038367
     55 H28         -9.6080    -2.1560     0.8520 hc         1 9AU       0.038367
     56 H29         -9.5860    -2.5830    -0.8600 hc         1 9AU       0.038367
     57 H30         -9.1020    -3.7680     0.3350 hc         1 9AU       0.038367
@<TRIPOS>BOND
     1     1     2 2   
     2     2     3 1   
     3     2    12 1   
     4     3     4 1   
     5     4     5 ar  
     6     4     9 ar  
     7     5     6 ar  
     8     5    10 1   
     9     6     7 ar  
    10     6    28 1   
    11     7     8 ar  
    12     7    29 1   
    13     8     9 ar  
    14     8    30 1   
    15     9    31 1   
    16    10    11 1   
    17    10    12 2   
    18    11    32 1   
    19    12    13 1   
    20    13    14 1   
    21    13    33 1   
    22    13    34 1   
    23    14    15 2   
    24    14    35 1   
    25    15    16 1   
    26    15    17 1   
    27    16    36 1   
    28    16    37 1   
    29    16    38 1   
    30    17    18 1   
    31    17    39 1   
    32    17    40 1   
    33    18    19 1   
    34    18    41 1   
    35    18    42 1   
    36    19    20 2   
    37    19    43 1   
    38    20    21 1   
    39    20    22 1   
    40    21    44 1   
    41    21    45 1   
    42    21    46 1   
    43    22    23 1   
    44    22    47 1   
    45    22    48 1   
    46    23    24 1   
    47    23    49 1   
    48    23    50 1   
    49    24    25 2   
    50    24    51 1   
    51    25    26 1   
    52    25    27 1   
    53    26    52 1   
    54    26    53 1   
    55    26    54 1   
    56    27    55 1   
    57    27    56 1   
    58    27    57 1   
@<TRIPOS>SUBSTRUCTURE
     1 9AU         1 TEMP              0 ****  ****    0 ROOT
