@<TRIPOS>MOLECULE
9AU
   57    58     1     0     0
SMALL
No Charge or Current Charge


@<TRIPOS>ATOM
      1 OAE          2.8290     0.8560     2.6550 o          1 9AU      -0.488000
      2 CAY          3.4910     0.4590     1.7040 c          1 9AU       0.687300
      3 OAS          4.3970    -0.5480     1.8730 os         1 9AU      -0.336200
      4 CAZ          5.1770    -1.0520     0.8730 ca         1 9AU       0.190100
      5 CBA          5.0880    -0.5340    -0.4310 ca         1 9AU      -0.196800
      6 CAM          5.9200    -1.0940    -1.4350 ca         1 9AU      -0.065000
      7 CAK          6.8090    -2.1380    -1.1250 ca         1 9AU      -0.135000
      8 CAJ          6.8840    -2.6410     0.1820 ca         1 9AU      -0.058000
      9 CAL          6.0650    -2.0940     1.1810 ca         1 9AU      -0.130000
     10 CAW          4.1440     0.5540    -0.6990 cc         1 9AU       0.233900
     11 OAF          4.0850     1.0450    -1.9500 oh         1 9AU      -0.512100
     12 CAX          3.3680     1.0330     0.3350 cd         1 9AU      -0.279400
     13 CAP          2.3490     2.1500     0.1800 c3         1 9AU       0.033000
     14 CAI          0.9320     1.6020     0.1260 c2         1 9AU      -0.215200
     15 CAV          0.1360     1.4310    -0.9490 c2         1 9AU      -0.112400
     16 CAD          0.5150     1.7360    -2.3930 c3         1 9AU      -0.052900
     17 CAR         -1.2730     0.8670    -0.8160 c3         1 9AU      -0.037200
     18 CAO         -2.3730     1.9440    -0.9330 c3         1 9AU      -0.036200
     19 CAH         -3.7610     1.3720    -0.7020 c2         1 9AU      -0.222200
     20 CAU         -4.3970     1.2090     0.4740 c2         1 9AU      -0.111400
     21 CAC         -3.8190     1.5600     1.8390 c3         1 9AU      -0.055900
     22 CAQ         -5.8120     0.6530     0.5500 c3         1 9AU      -0.038200
     23 CAN         -5.8590    -0.8310     0.9740 c3         1 9AU      -0.036200
     24 CAG         -7.2710    -1.3910     0.9520 c2         1 9AU      -0.223200
     25 CAT         -7.9130    -1.9550    -0.0890 c2         1 9AU      -0.113400
     26 CAB         -7.3440    -2.1170    -1.4910 c3         1 9AU      -0.055900
     27 CAA         -9.3230    -2.5040     0.0270 c3         1 9AU      -0.055900
     28 H1           5.8950    -0.7370    -2.4610 ha         1 9AU       0.109000
     29 H2           7.4420    -2.5590    -1.9030 ha         1 9AU       0.123000
     30 H3           7.5730    -3.4490     0.4200 ha         1 9AU       0.124000
     31 H4           6.1160    -2.4780     2.1970 ha         1 9AU       0.142000
     32 H5           4.7340     0.5420    -2.4790 ho         1 9AU       0.476000
     33 H6           2.4310     2.8580     1.0150 hc         1 9AU       0.061700
     34 H7           2.5720     2.7610    -0.7010 hc         1 9AU       0.061700
     35 H8           0.5470     1.3430     1.1140 ha         1 9AU       0.175000
     36 H9           0.3930     0.8480    -3.0250 hc         1 9AU       0.038033
     37 H10         -0.1150     2.5290    -2.8100 hc         1 9AU       0.038033
     38 H11          1.5530     2.0610    -2.5050 hc         1 9AU       0.038033
     39 H12         -1.4470     0.0840    -1.5650 hc         1 9AU       0.045200
     40 H13         -1.3850     0.3740     0.1580 hc         1 9AU       0.045200
     41 H14         -2.1620     2.7510    -0.2220 hc         1 9AU       0.045200
     42 H15         -2.3310     2.4050    -1.9260 hc         1 9AU       0.045200
     43 H16         -4.2640     1.0890    -1.6280 ha         1 9AU       0.163000
     44 H17         -4.4270     2.3240     2.3380 hc         1 9AU       0.040033
     45 H18         -3.7850     0.6830     2.4950 hc         1 9AU       0.040033
     46 H19         -2.7960     1.9480     1.7820 hc         1 9AU       0.040033
     47 H20         -6.4240     1.2500     1.2380 hc         1 9AU       0.044200
     48 H21         -6.2970     0.7390    -0.4300 hc         1 9AU       0.044200
     49 H22         -5.2000    -1.4110     0.3170 hc         1 9AU       0.046200
     50 H23         -5.4410    -0.9390     1.9820 hc         1 9AU       0.046200
     51 H24         -7.7740    -1.3190     1.9180 ha         1 9AU       0.164000
     52 H25         -7.2590    -3.1770    -1.7590 hc         1 9AU       0.038367
     53 H26         -7.9940    -1.6390    -2.2340 hc         1 9AU       0.038367
     54 H27         -6.3510    -1.6710    -1.6050 hc         1 9AU       0.038367
     55 H28         -9.7240    -2.3850     1.0410 hc         1 9AU       0.038367
     56 H29        -10.0060    -1.9880    -0.6590 hc         1 9AU       0.038367
     57 H30         -9.3510    -3.5730    -0.2140 hc         1 9AU       0.038367
@<TRIPOS>BOND
     1     1     2 2   
     2     2     3 1   
     3     2    12 1   
     4     3     4 1   
     5     4     5 ar  
     6     4     9 ar  
     7     5     6 ar  
     8     5    10 1   
     9     6     7 ar  
    10     6    28 1   
    11     7     8 ar  
    12     7    29 1   
    13     8     9 ar  
    14     8    30 1   
    15     9    31 1   
    16    10    11 1   
    17    10    12 2   
    18    11    32 1   
    19    12    13 1   
    20    13    14 1   
    21    13    33 1   
    22    13    34 1   
    23    14    15 2   
    24    14    35 1   
    25    15    16 1   
    26    15    17 1   
    27    16    36 1   
    28    16    37 1   
    29    16    38 1   
    30    17    18 1   
    31    17    39 1   
    32    17    40 1   
    33    18    19 1   
    34    18    41 1   
    35    18    42 1   
    36    19    20 2   
    37    19    43 1   
    38    20    21 1   
    39    20    22 1   
    40    21    44 1   
    41    21    45 1   
    42    21    46 1   
    43    22    23 1   
    44    22    47 1   
    45    22    48 1   
    46    23    24 1   
    47    23    49 1   
    48    23    50 1   
    49    24    25 2   
    50    24    51 1   
    51    25    26 1   
    52    25    27 1   
    53    26    52 1   
    54    26    53 1   
    55    26    54 1   
    56    27    55 1   
    57    27    56 1   
    58    27    57 1   
@<TRIPOS>SUBSTRUCTURE
     1 9AU         1 TEMP              0 ****  ****    0 ROOT
