@<TRIPOS>MOLECULE
9AW
   36    39     1     0     0
SMALL
abcg2


@<TRIPOS>ATOM
      1 CAW         -4.9980     1.3500    -0.1050 ca         1 9AW      -0.148000
      2 CAV         -6.3830     1.3520    -0.1190 ca         1 9AW      -0.072000
      3 CAU         -7.0570     0.1440    -0.0400 ca         1 9AW      -0.160000
      4 CAT         -6.3020    -1.0170     0.0420 ca         1 9AW       0.343900
      5 NAS         -4.9780    -1.0270     0.0590 nb         1 9AW      -0.672000
      6 CAR         -4.3240     0.1330    -0.0060 cp         1 9AW       0.399500
      7 CAO         -2.8470     0.0600     0.0130 cp         1 9AW      -0.120500
      8 CAP         -2.1990    -1.1260    -0.3320 ca         1 9AW      -0.091500
      9 CAQ         -0.8190    -1.2120    -0.3210 ca         1 9AW      -0.080500
     10 CAN         -2.0640     1.1570     0.3780 ca         1 9AW      -0.091500
     11 CAM         -0.6840     1.0760     0.3870 ca         1 9AW      -0.080500
     12 CAL         -0.0420    -0.1120     0.0410 ca         1 9AW      -0.144900
     13 CAD          1.4310    -0.1600     0.0540 cc         1 9AW       0.561500
     14 NAE          2.1020     0.9300    -0.0770 nd         1 9AW      -0.633100
     15 CAF          3.4720     0.8530    -0.0630 ca         1 9AW       0.191400
     16 CAK          4.2130     2.0360    -0.1970 ca         1 9AW      -0.106000
     17 CAJ          5.5900     1.9940    -0.1940 ca         1 9AW      -0.075000
     18 CAI          6.2680     0.7770    -0.0580 ca         1 9AW      -0.134000
     19 CAH          5.5550    -0.3950     0.0740 ca         1 9AW      -0.039000
     20 CAG          4.1580    -0.3640     0.0710 ca         1 9AW      -0.204600
     21 CAB          3.3860    -1.5900     0.2230 c          1 9AW       0.578600
     22 OAA          3.8480    -2.7080     0.3630 o          1 9AW      -0.537000
     23 NAC          2.0240    -1.3790     0.2090 ns         1 9AW      -0.426400
     24 H1          -4.4560     2.2820    -0.1870 ha         1 9AW       0.126000
     25 H2          -6.9250     2.2840    -0.1990 ha         1 9AW       0.121000
     26 H3          -8.1370     0.0960    -0.0480 ha         1 9AW       0.126000
     27 H4          -6.7910    -1.9840     0.1000 h4         1 9AW       0.021100
     28 H5          -2.7810    -1.9890    -0.6260 ha         1 9AW       0.129000
     29 H6          -0.3640    -2.1450    -0.6290 ha         1 9AW       0.128000
     30 H7          -2.5260     2.0860     0.6830 ha         1 9AW       0.129000
     31 H8          -0.0990     1.9370     0.6810 ha         1 9AW       0.128000
     32 H9           3.6840     2.9740    -0.3040 ha         1 9AW       0.132000
     33 H10          6.1540     2.9110    -0.3000 ha         1 9AW       0.117000
     34 H11          7.3490     0.7570    -0.0590 ha         1 9AW       0.119000
     35 H12          6.0700    -1.3400     0.1820 ha         1 9AW       0.135000
     36 H13          1.4460    -2.1950     0.3660 hn         1 9AW       0.332500
@<TRIPOS>BOND
     1     1     2 ar  
     2     1     6 ar  
     3     1    24 1   
     4     2     3 ar  
     5     2    25 1   
     6     3     4 ar  
     7     3    26 1   
     8     4     5 ar  
     9     4    27 1   
    10     5     6 ar  
    11     6     7 1   
    12     7     8 ar  
    13     7    10 ar  
    14     8     9 ar  
    15     8    28 1   
    16     9    12 ar  
    17     9    29 1   
    18    10    11 ar  
    19    10    30 1   
    20    11    12 ar  
    21    11    31 1   
    22    12    13 1   
    23    13    14 2   
    24    13    23 1   
    25    14    15 1   
    26    15    16 ar  
    27    15    20 ar  
    28    16    17 ar  
    29    16    32 1   
    30    17    18 ar  
    31    17    33 1   
    32    18    19 ar  
    33    18    34 1   
    34    19    20 ar  
    35    19    35 1   
    36    20    21 1   
    37    21    22 2   
    38    21    23 1   
    39    23    36 1   
@<TRIPOS>SUBSTRUCTURE
     1 9AW         1 TEMP              0 ****  ****    0 ROOT
