@<TRIPOS>MOLECULE
9AW
   36    39     1     0     0
SMALL
No Charge or Current Charge


@<TRIPOS>ATOM
      1 CAW         -5.1080     1.3390    -0.0950 ca         1 9AW      -0.148000
      2 CAV         -6.5130     1.3350    -0.1120 ca         1 9AW      -0.072000
      3 CAU         -7.1680     0.0970    -0.0450 ca         1 9AW      -0.160000
      4 CAT         -6.4020    -1.0760     0.0290 ca         1 9AW       0.343900
      5 NAS         -5.0500    -1.0690     0.0430 nb         1 9AW      -0.672000
      6 CAR         -4.3930     0.1150    -0.0090 cp         1 9AW       0.399500
      7 CAO         -2.8860     0.0590     0.0130 cp         1 9AW      -0.120500
      8 CAP         -2.1830    -1.1080    -0.3880 ca         1 9AW      -0.091500
      9 CAQ         -0.7790    -1.1660    -0.3700 ca         1 9AW      -0.080500
     10 CAN         -2.1050     1.1670     0.4330 ca         1 9AW      -0.091500
     11 CAM         -0.7010     1.1120     0.4520 ca         1 9AW      -0.080500
     12 CAL         -0.0130    -0.0620     0.0710 ca         1 9AW      -0.144900
     13 CAD          1.4610    -0.0940     0.0590 cc         1 9AW       0.561500
     14 NAE          2.1560     1.0370    -0.0930 nd         1 9AW      -0.633100
     15 CAF          3.5530     0.8790    -0.0790 ca         1 9AW       0.191400
     16 CAK          4.3390     2.0340    -0.2460 ca         1 9AW      -0.106000
     17 CAJ          5.7430     1.9610    -0.2460 ca         1 9AW      -0.075000
     18 CAI          6.3770     0.7210    -0.0750 ca         1 9AW      -0.134000
     19 CAH          5.6070    -0.4410     0.0940 ca         1 9AW      -0.039000
     20 CAG          4.1970    -0.3600     0.0920 ca         1 9AW      -0.204600
     21 CAB          3.3610    -1.5680     0.2760 c          1 9AW       0.578600
     22 OAA          3.8070    -2.6920     0.4450 o          1 9AW      -0.537000
     23 NAC          2.0340    -1.3250     0.2460 ns         1 9AW      -0.426400
     24 H1          -4.5800     2.2840    -0.1630 ha         1 9AW       0.126000
     25 H2          -7.0750     2.2640    -0.1780 ha         1 9AW       0.121000
     26 H3          -8.2530     0.0400    -0.0550 ha         1 9AW       0.126000
     27 H4          -6.8840    -2.0520     0.0770 h4         1 9AW       0.021100
     28 H5          -2.7320    -1.9810    -0.7350 ha         1 9AW       0.129000
     29 H6          -0.2970    -2.0770    -0.7200 ha         1 9AW       0.128000
     30 H7          -2.5850     2.0840     0.7650 ha         1 9AW       0.129000
     31 H8          -0.1480     1.9890     0.7820 ha         1 9AW       0.128000
     32 H9           3.8540     2.9980    -0.3790 ha         1 9AW       0.132000
     33 H10          6.3360     2.8630    -0.3770 ha         1 9AW       0.117000
     34 H11          7.4630     0.6590    -0.0740 ha         1 9AW       0.119000
     35 H12          6.1050    -1.4000     0.2280 ha         1 9AW       0.135000
     36 H13          1.4360    -2.1220     0.3950 hn         1 9AW       0.332500
@<TRIPOS>BOND
     1     1     2 ar  
     2     1     6 ar  
     3     1    24 1   
     4     2     3 ar  
     5     2    25 1   
     6     3     4 ar  
     7     3    26 1   
     8     4     5 ar  
     9     4    27 1   
    10     5     6 ar  
    11     6     7 1   
    12     7     8 ar  
    13     7    10 ar  
    14     8     9 ar  
    15     8    28 1   
    16     9    12 ar  
    17     9    29 1   
    18    10    11 ar  
    19    10    30 1   
    20    11    12 ar  
    21    11    31 1   
    22    12    13 1   
    23    13    14 2   
    24    13    23 1   
    25    14    15 1   
    26    15    16 ar  
    27    15    20 ar  
    28    16    17 ar  
    29    16    32 1   
    30    17    18 ar  
    31    17    33 1   
    32    18    19 ar  
    33    18    34 1   
    34    19    20 ar  
    35    19    35 1   
    36    20    21 1   
    37    21    22 2   
    38    21    23 1   
    39    23    36 1   
@<TRIPOS>SUBSTRUCTURE
     1 9AW         1 TEMP              0 ****  ****    0 ROOT
