@<TRIPOS>MOLECULE
9AY
   19    19     1     0     0
SMALL
No Charge or Current Charge


@<TRIPOS>ATOM
      1 C8           0.1850     1.6230     0.0390 ca         1 9AY      -0.140000
      2 C2          -1.6080    -0.0320     0.0260 ca         1 9AY      -0.076300
      3 C9          -1.1850     1.3090     0.0450 ca         1 9AY      -0.111000
      4 C3          -0.6480    -1.0610     0.0010 ca         1 9AY      -0.145000
      5 C1          -3.0920    -0.3670     0.0270 c3         1 9AY      -0.041800
      6 C6           1.1520     0.6030     0.0130 ca         1 9AY       0.217000
      7 C4           0.7270    -0.7650    -0.0010 ca         1 9AY       0.227000
      8 N5           1.6250    -1.8230    -0.0070 nv         1 9AY      -1.056000
      9 N7           2.4910     0.9690    -0.0110 nv         1 9AY      -1.052000
     10 H1           0.4920     2.6650     0.0500 ha         1 9AY       0.109000
     11 H2          -1.9190     2.1120     0.0620 ha         1 9AY       0.110000
     12 H3          -0.9760    -2.0970    -0.0130 ha         1 9AY       0.107000
     13 H4          -3.4720    -0.4580    -0.9970 hc         1 9AY       0.039367
     14 H5          -3.2870    -1.3160     0.5420 hc         1 9AY       0.039367
     15 H6          -3.6770     0.4080     0.5350 hc         1 9AY       0.039367
     16 H7           2.5900    -1.6440     0.2590 hn         1 9AY       0.434500
     17 H8           1.2810    -2.7700     0.1380 hn         1 9AY       0.434500
     18 H9           2.7360     1.9470    -0.1500 hn         1 9AY       0.432500
     19 H10          3.1850     0.2810    -0.2940 hn         1 9AY       0.432500
@<TRIPOS>BOND
     1     1     3 ar  
     2     1     6 ar  
     3     1    10 1   
     4     2     3 ar  
     5     2     4 ar  
     6     2     5 1   
     7     3    11 1   
     8     4     7 ar  
     9     4    12 1   
    10     5    13 1   
    11     5    14 1   
    12     5    15 1   
    13     6     7 ar  
    14     6     9 1   
    15     7     8 1   
    16     8    16 1   
    17     8    17 1   
    18     9    18 1   
    19     9    19 1   
@<TRIPOS>SUBSTRUCTURE
     1 9AY         1 TEMP              0 ****  ****    0 ROOT
