@<TRIPOS>MOLECULE
9AY
   19    19     1     0     0
SMALL
bcc


@<TRIPOS>ATOM
      1 C8           0.1840     1.5960     0.0930 ca         1 9AY      -0.158000
      2 C2          -1.6070    -0.0220     0.0360 ca         1 9AY      -0.076300
      3 C9          -1.1750     1.2940     0.1050 ca         1 9AY      -0.129000
      4 C3          -0.6400    -1.0280    -0.0160 ca         1 9AY      -0.163000
      5 C1          -3.0680    -0.3700     0.0110 c3         1 9AY      -0.041800
      6 C6           1.1460     0.5980     0.0250 ca         1 9AY       0.078600
      7 C4           0.7210    -0.7470    -0.0150 ca         1 9AY       0.088600
      8 N5           1.6850    -1.7490    -0.1050 nv         1 9AY      -0.807200
      9 N7           2.5150     0.8700     0.0500 nv         1 9AY      -0.803200
     10 H1           0.5020     2.6320     0.1310 ha         1 9AY       0.127000
     11 H2          -1.8970     2.1000     0.1570 ha         1 9AY       0.128000
     12 H3          -0.9550    -2.0670    -0.0480 ha         1 9AY       0.125000
     13 H4          -3.3760    -0.7330    -0.9720 hc         1 9AY       0.039367
     14 H5          -3.3100    -1.1550     0.7300 hc         1 9AY       0.039367
     15 H6          -3.6860     0.4960     0.2460 hc         1 9AY       0.039367
     16 H7           2.4750    -1.6050     0.5100 hn         1 9AY       0.379300
     17 H8           1.3130    -2.6760     0.0360 hn         1 9AY       0.379300
     18 H9           2.7280     1.8440    -0.1070 hn         1 9AY       0.377300
     19 H10          3.0460     0.3070    -0.6010 hn         1 9AY       0.377300
@<TRIPOS>BOND
     1     1     3 ar  
     2     1     6 ar  
     3     1    10 1   
     4     2     3 ar  
     5     2     4 ar  
     6     2     5 1   
     7     3    11 1   
     8     4     7 ar  
     9     4    12 1   
    10     5    13 1   
    11     5    14 1   
    12     5    15 1   
    13     6     7 ar  
    14     6     9 1   
    15     7     8 1   
    16     8    16 1   
    17     8    17 1   
    18     9    18 1   
    19     9    19 1   
@<TRIPOS>SUBSTRUCTURE
     1 9AY         1 TEMP              0 ****  ****    0 ROOT
