@<TRIPOS>MOLECULE
9AZ
   46    49     1     0     0
SMALL
No Charge or Current Charge


@<TRIPOS>ATOM
      1 C1           6.3890    -1.2660    -0.1930 ca         1 9AZ      -0.205000
      2 C2           5.6210    -2.4370    -0.1580 ca         1 9AZ      -0.070000
      3 C3           4.2240    -2.3490    -0.0730 ca         1 9AZ      -0.119000
      4 C4           3.5770    -1.1030    -0.0190 ca         1 9AZ       0.305000
      5 C5           4.3640     0.0900    -0.0540 ca         1 9AZ      -0.120000
      6 C6           5.7740    -0.0090    -0.1430 ca         1 9AZ       0.304000
      7 N7           2.2230    -1.0810     0.0650 nb         1 9AZ      -0.633000
      8 C8           1.6410     0.1320     0.1160 ca         1 9AZ       0.431800
      9 C9           2.3120     1.3420     0.0910 ca         1 9AZ      -0.164300
     10 C10          3.7080     1.3470     0.0040 ca         1 9AZ      -0.045000
     11 C11          0.2330     0.4280     0.2070 cc         1 9AZ      -0.079200
     12 N12          0.0700     1.7770     0.2330 n          1 9AZ      -0.283000
     13 C13          1.3540     2.5360     0.1650 c5         1 9AZ       0.148300
     14 C14         -0.7860    -0.4820     0.2510 cd         1 9AZ      -0.173000
     15 C15         -2.1620    -0.0050     0.3460 cd         1 9AZ       0.012800
     16 C16         -2.3410     1.4070     0.3250 cc         1 9AZ      -0.230400
     17 C17         -1.1840     2.3760     0.2760 c          1 9AZ       0.564200
     18 O18         -1.2790     3.5980     0.2700 o          1 9AZ      -0.599000
     19 C19         -3.6690     2.1430     0.3230 c3         1 9AZ       0.231800
     20 C20         -3.2650    -1.1020     0.3870 c3         1 9AZ       0.054200
     21 C21         -3.7140    -1.4060    -1.1040 c          1 9AZ       0.740000
     22 O22         -3.4760    -2.4990    -1.6070 o          1 9AZ      -0.687000
     23 O23         -4.2330    -0.4890    -1.7320 o          1 9AZ      -0.687000
     24 O24         -2.7070    -2.2780     1.0450 oh         1 9AZ      -0.622000
     25 C25         -4.5370    -0.7600     1.2380 c3         1 9AZ      -0.080400
     26 C26         -5.4800    -1.9490     1.5530 c3         1 9AZ      -0.076100
     27 O27         -4.3160     2.0200    -0.9460 oh         1 9AZ      -0.716000
     28 N28          6.5860     1.0970    -0.1850 nv         1 9AZ      -1.072000
     29 H1           7.4720    -1.3430    -0.2590 ha         1 9AZ       0.104000
     30 H2           6.1040    -3.4110    -0.1980 ha         1 9AZ       0.108000
     31 H3           3.6310    -3.2600    -0.0470 ha         1 9AZ       0.137000
     32 H4           4.2480     2.2900    -0.0140 ha         1 9AZ       0.114000
     33 H5           1.5210     3.1450     1.0630 h1         1 9AZ       0.072200
     34 H6          -0.5470    -1.5420     0.2060 ha         1 9AZ       0.237000
     35 H8          -4.3040     1.7820     1.1360 h1         1 9AZ       0.028200
     36 H9          -3.5460     3.2070     0.5550 h1         1 9AZ       0.028200
     37 H11         -2.5160    -2.0240     1.9720 ho         1 9AZ       0.403000
     38 H12         -4.2340    -0.2940     2.1840 hc         1 9AZ       0.036700
     39 H13         -5.1600    -0.0400     0.7000 hc         1 9AZ       0.036700
     40 H14         -6.3910    -1.5860     2.0450 hc         1 9AZ       0.028033
     41 H15         -5.7760    -2.4680     0.6340 hc         1 9AZ       0.028033
     42 H16         -5.0080    -2.6720     2.2280 hc         1 9AZ       0.028033
     43 H17         -4.2660     1.0550    -1.2100 ho         1 9AZ       0.517000
     44 H18          7.5780     0.9830    -0.3860 hn         1 9AZ       0.444500
     45 H19          6.1840     2.0200    -0.3250 hn         1 9AZ       0.444500
     46 H7           1.4130     3.1690    -0.7310 h1         1 9AZ       0.072200
@<TRIPOS>BOND
     1     1     2 ar  
     2     1     6 ar  
     3     1    29 1   
     4     2     3 ar  
     5     2    30 1   
     6     3     4 ar  
     7     3    31 1   
     8     4     5 ar  
     9     4     7 ar  
    10     5     6 ar  
    11     5    10 ar  
    12     6    28 1   
    13     7     8 ar  
    14     8     9 ar  
    15     8    11 1   
    16     9    10 ar  
    17     9    13 1   
    18    10    32 1   
    19    11    12 1   
    20    11    14 2   
    21    12    13 1   
    22    12    17 1   
    23    13    33 1   
    24    13    46 1   
    25    14    15 1   
    26    14    34 1   
    27    15    16 2   
    28    15    20 1   
    29    16    17 1   
    30    16    19 1   
    31    17    18 2   
    32    19    27 1   
    33    19    35 1   
    34    19    36 1   
    35    20    21 1   
    36    20    24 1   
    37    20    25 1   
    38    21    22 1   
    39    21    23 1   
    40    24    37 1   
    41    25    26 1   
    42    25    38 1   
    43    25    39 1   
    44    26    40 1   
    45    26    41 1   
    46    26    42 1   
    47    27    43 1   
    48    28    44 1   
    49    28    45 1   
@<TRIPOS>SUBSTRUCTURE
     1 9AZ         1 TEMP              0 ****  ****    0 ROOT
