@<TRIPOS>MOLECULE
9AZ
   46    49     1     0     0
SMALL
bcc


@<TRIPOS>ATOM
      1 C1           6.3670    -1.2240    -0.2050 ca         1 9AZ      -0.223000
      2 C2           5.6020    -2.3940    -0.0890 ca         1 9AZ      -0.088000
      3 C3           4.2370    -2.3490     0.0110 ca         1 9AZ      -0.202300
      4 C4           3.5860    -1.0980     0.0150 ca         1 9AZ       0.435600
      5 C5           4.3510     0.1040    -0.0840 ca         1 9AZ      -0.185300
      6 C6           5.7730     0.0220    -0.2120 ca         1 9AZ       0.165600
      7 N7           2.2360    -1.0850     0.1250 nb         1 9AZ      -0.633000
      8 C8           1.6590     0.0810     0.1480 ca         1 9AZ       0.497100
      9 C9           2.3140     1.3260     0.0770 ca         1 9AZ      -0.229600
     10 C10          3.6710     1.3420    -0.0360 ca         1 9AZ      -0.063000
     11 C11          0.2280     0.3350     0.2640 cc         1 9AZ      -0.079200
     12 N12          0.0580     1.6830     0.2630 n          1 9AZ      -0.350000
     13 C13          1.3090     2.4290     0.1470 c5         1 9AZ       0.148300
     14 C14         -0.8260    -0.5050     0.3640 cd         1 9AZ      -0.123000
     15 C15         -2.1440     0.0320     0.4630 cd         1 9AZ       0.012800
     16 C16         -2.3130     1.4020     0.4450 cc         1 9AZ      -0.230400
     17 C17         -1.1660     2.2950     0.3340 c          1 9AZ       0.706700
     18 O18         -1.2200     3.5240     0.3050 o          1 9AZ      -0.674500
     19 C19         -3.6450     2.1170     0.4320 c3         1 9AZ       0.208600
     20 C20         -3.2390    -1.0530     0.4900 c3         1 9AZ       0.031000
     21 C21         -3.5220    -1.3880    -1.0100 c          1 9AZ       0.950600
     22 O22         -3.2050    -2.5020    -1.4250 o          1 9AZ      -0.792300
     23 O23         -4.0550    -0.4630    -1.6700 o          1 9AZ      -0.792300
     24 O24         -2.7110    -2.2130     1.0890 oh         1 9AZ      -0.559800
     25 C25         -4.5620    -0.7080     1.1960 c3         1 9AZ      -0.080400
     26 C26         -5.5060    -1.9010     1.3060 c3         1 9AZ      -0.076100
     27 O27         -4.2920     2.0410    -0.8160 oh         1 9AZ      -0.653800
     28 N28          6.5280     1.1720    -0.2750 nv         1 9AZ      -0.823200
     29 H1           7.4440    -1.3010    -0.2990 ha         1 9AZ       0.122000
     30 H2           6.1110    -3.3500    -0.0920 ha         1 9AZ       0.126000
     31 H3           3.6420    -3.2490     0.0910 ha         1 9AZ       0.155000
     32 H4           4.2080     2.2810    -0.0820 ha         1 9AZ       0.132000
     33 H5           1.4460     3.0820     1.0110 h1         1 9AZ       0.072200
     34 H6          -0.6490    -1.5690     0.3520 ha         1 9AZ       0.187000
     35 H8          -4.2710     1.7480     1.2470 h1         1 9AZ       0.028200
     36 H9          -3.4740     3.1710     0.6450 h1         1 9AZ       0.028200
     37 H11         -2.5920    -2.0330     2.0290 ho         1 9AZ       0.364000
     38 H12         -4.3500    -0.3190     2.1970 hc         1 9AZ       0.036700
     39 H13         -5.0930     0.0770     0.6650 hc         1 9AZ       0.036700
     40 H14         -6.4350    -1.5870     1.7820 hc         1 9AZ       0.028033
     41 H15         -5.7680    -2.3040     0.3260 hc         1 9AZ       0.028033
     42 H16         -5.0910    -2.7120     1.9010 hc         1 9AZ       0.028033
     43 H17         -4.2430     1.1050    -1.1280 ho         1 9AZ       0.478000
     44 H18          7.4940     1.0280    -0.5230 hn         1 9AZ       0.389300
     45 H19          6.1370     1.9460    -0.7890 hn         1 9AZ       0.389300
     46 H7           1.3020     3.0540    -0.7470 h1         1 9AZ       0.072200
@<TRIPOS>BOND
     1     1     2 ar  
     2     1     6 ar  
     3     1    29 1   
     4     2     3 ar  
     5     2    30 1   
     6     3     4 ar  
     7     3    31 1   
     8     4     5 ar  
     9     4     7 ar  
    10     5     6 ar  
    11     5    10 ar  
    12     6    28 1   
    13     7     8 ar  
    14     8     9 ar  
    15     8    11 1   
    16     9    10 ar  
    17     9    13 1   
    18    10    32 1   
    19    11    12 1   
    20    11    14 2   
    21    12    13 1   
    22    12    17 1   
    23    13    33 1   
    24    13    46 1   
    25    14    15 1   
    26    14    34 1   
    27    15    16 2   
    28    15    20 1   
    29    16    17 1   
    30    16    19 1   
    31    17    18 2   
    32    19    27 1   
    33    19    35 1   
    34    19    36 1   
    35    20    21 1   
    36    20    24 1   
    37    20    25 1   
    38    21    22 1   
    39    21    23 1   
    40    24    37 1   
    41    25    26 1   
    42    25    38 1   
    43    25    39 1   
    44    26    40 1   
    45    26    41 1   
    46    26    42 1   
    47    27    43 1   
    48    28    44 1   
    49    28    45 1   
@<TRIPOS>SUBSTRUCTURE
     1 9AZ         1 TEMP              0 ****  ****    0 ROOT
