@<TRIPOS>MOLECULE
9B0
  117   120     1     0     0
SMALL
No Charge or Current Charge


@<TRIPOS>ATOM
      1 C35        104.0270   126.2170   132.4230 c3         1 9B0      -0.084900
      2 C36        104.1880   124.7000   132.1570 c3         1 9B0      -0.068400
      3 C37        104.6250   124.3030   130.7310 c3         1 9B0      -0.072400
      4 C38        103.7550   124.8610   129.5810 c3         1 9B0      -0.072400
      5 C39        103.9130   126.3840   129.3770 c3         1 9B0      -0.068400
      6 C40        103.0210   127.2890   130.2620 c3         1 9B0      -0.084900
      7 C34        102.7810   126.8470   131.7400 c3         1 9B0       0.194500
      8 N2         102.1660   127.9100   132.5930 n3         1 9B0      -0.744600
      9 C32        100.8230   128.3540   132.1340 c6         1 9B0       0.157800
     10 C33        100.1130   129.2750   133.1640 c6         1 9B0       0.107000
     11 C31        103.0190   129.1060   132.8420 c6         1 9B0       0.157800
     12 C30        102.4090   130.0470   133.9170 c6         1 9B0       0.107000
     13 N1         100.9600   130.3680   133.7420 n          1 9B0      -0.403800
     14 C29        100.3890   131.4170   134.4840 c          1 9B0       0.640100
     15 O6         101.0530   132.2270   135.1170 o          1 9B0      -0.556000
     16 O5          99.0270   131.4540   134.3630 os         1 9B0      -0.447100
     17 C8          98.2700   132.3990   135.1510 c3         1 9B0       0.234500
     18 C9          97.0920   132.8070   134.2880 c2         1 9B0      -0.214200
     19 C10         96.9250   134.0180   133.7340 c2         1 9B0      -0.203200
     20 C11         95.6410   134.5100   133.0890 c3         1 9B0      -0.032500
     21 C12         95.9100   135.0090   131.6520 c3         1 9B0      -0.084100
     22 C6          97.8250   131.7630   136.5360 c3         1 9B0       0.175000
     23 C7          99.0330   131.5100   137.4740 c3         1 9B0      -0.118100
     24 O4          97.2130   130.4810   136.3070 oh         1 9B0      -0.654000
     25 C5          96.7460   132.6350   137.2610 c3         1 9B0      -0.102400
     26 C4          97.1400   134.1070   137.5780 c3         1 9B0      -0.108400
     27 C3          96.0750   134.8840   138.4010 c3         1 9B0       0.180300
     28 O3          96.6170   136.1550   138.7730 oh         1 9B0      -0.663000
     29 C2          94.7130   135.1040   137.6980 c3         1 9B0      -0.176400
     30 C1          94.8410   135.8720   136.3860 c          1 9B0       0.598100
     31 O2          95.0530   137.0760   136.3390 o          1 9B0      -0.513000
     32 O1          94.8230   135.0370   135.3030 os         1 9B0      -0.447100
     33 C13         94.9860   135.6000   133.9850 c3         1 9B0       0.210500
     34 C14         93.6290   136.1130   133.4930 c2         1 9B0      -0.114400
     35 C15         92.5480   135.0390   133.3990 c3         1 9B0      -0.053900
     36 C16         93.4410   137.4110   133.1510 ce         1 9B0      -0.166000
     37 C17         92.1920   137.9870   132.6310 ce         1 9B0      -0.172000
     38 C18         92.0560   139.2980   132.3270 c2         1 9B0      -0.238200
     39 C19         90.8140   139.9700   131.7730 c3         1 9B0       0.218200
     40 C20         90.9210   141.5060   131.9080 c3         1 9B0      -0.115100
     41 O7          89.7130   139.5410   132.5680 oh         1 9B0      -0.668000
     42 C21         90.5780   139.5280   130.3030 c3         1 9B0      -0.052400
     43 C22         89.3220   140.1060   129.6540 cx         1 9B0       0.101300
     44 O8          89.5030   141.1910   128.7120 op         1 9B0      -0.464000
     45 C23         89.0850   139.9130   128.1820 cx         1 9B0       0.084300
     46 C24         87.6590   139.8190   127.6350 c3         1 9B0      -0.079700
     47 C25         87.0230   138.4480   127.9900 c3         1 9B0      -0.080100
     48 C26         87.6050   140.1730   126.1170 c3         1 9B0       0.177300
     49 O9          88.3000   139.1790   125.3490 oh         1 9B0      -0.670000
     50 C27         86.1630   140.3300   125.5650 c3         1 9B0      -0.071400
     51 C28         86.1000   140.8980   124.1300 c3         1 9B0      -0.086100
     52 H1         104.9380   126.7550   132.1340 hc         1 9B0       0.042450
     53 H2         103.9290   126.3390   133.5090 hc         1 9B0       0.042450
     54 H3         103.2450   124.1920   132.3970 hc         1 9B0       0.037700
     55 H4         104.9310   124.3030   132.8610 hc         1 9B0       0.037700
     56 H5         104.6230   123.2080   130.6670 hc         1 9B0       0.036950
     57 H6         105.6660   124.6130   130.5770 hc         1 9B0       0.036950
     58 H7         102.7010   124.6010   129.7350 hc         1 9B0       0.036950
     59 H8         104.0650   124.3610   128.6550 hc         1 9B0       0.036950
     60 H9         104.9650   126.6590   129.5260 hc         1 9B0       0.037700
     61 H10        103.6930   126.6200   128.3290 hc         1 9B0       0.037700
     62 H11        103.4580   128.2920   130.2360 hc         1 9B0       0.042450
     63 H12        102.0430   127.3730   129.7730 hc         1 9B0       0.042450
     64 H13        102.0430   126.0350   131.6870 h1         1 9B0       0.054700
     65 H15        100.9110   128.9070   131.1870 h1         1 9B0       0.041450
     66 H16        100.1750   127.4870   131.9380 h1         1 9B0       0.041450
     67 H17         99.2280   129.7050   132.6750 h1         1 9B0       0.062200
     68 H18         99.7510   128.6520   133.9940 h1         1 9B0       0.062200
     69 H19        104.0250   128.8140   133.1750 h1         1 9B0       0.041450
     70 H20        103.1440   129.6870   131.9170 h1         1 9B0       0.041450
     71 H21        102.5350   129.5740   134.9000 h1         1 9B0       0.062200
     72 H22        102.9930   130.9780   133.9320 h1         1 9B0       0.062200
     73 H23         98.8610   133.3020   135.3560 h1         1 9B0       0.083700
     74 H24         96.3050   132.0540   134.2330 ha         1 9B0       0.192000
     75 H25         97.7020   134.7800   133.8290 ha         1 9B0       0.177000
     76 H26         94.9410   133.6690   133.0130 hc         1 9B0       0.064700
     77 H27         96.3740   134.2170   131.0520 hc         1 9B0       0.043033
     78 H28         94.9760   135.3030   131.1580 hc         1 9B0       0.043033
     79 H29         96.5830   135.8750   131.6580 hc         1 9B0       0.043033
     80 H30         98.7020   131.1840   138.4680 hc         1 9B0       0.048700
     81 H31         99.6890   130.7290   137.0730 hc         1 9B0       0.048700
     82 H32         99.6320   132.4200   137.6000 hc         1 9B0       0.048700
     83 H33         97.0380   130.0860   137.1870 ho         1 9B0       0.437000
     84 H34         95.8320   132.6390   136.6550 hc         1 9B0       0.050200
     85 H35         96.4710   132.1450   138.2040 hc         1 9B0       0.050200
     86 H36         98.0740   134.1070   138.1520 hc         1 9B0       0.058200
     87 H37         97.3480   134.6470   136.6480 hc         1 9B0       0.058200
     88 H38         95.8830   134.3000   139.3140 h1         1 9B0       0.071700
     89 H39         96.4350   136.7760   138.0310 ho         1 9B0       0.466000
     90 H40         94.0640   135.6730   138.3730 hc         1 9B0       0.083700
     91 H41         94.2570   134.1270   137.5040 hc         1 9B0       0.083700
     92 H42         95.6970   136.4380   134.0180 h1         1 9B0       0.078700
     93 H44         92.7640   134.1670   134.0280 hc         1 9B0       0.046700
     94 H45         91.5730   135.4190   133.7230 hc         1 9B0       0.046700
     95 H46         92.4440   134.6820   132.3670 hc         1 9B0       0.046700
     96 H47         94.2740   138.1090   133.2500 ha         1 9B0       0.176000
     97 H49         91.3490   137.3100   132.4770 ha         1 9B0       0.181000
     98 H51         92.9020   139.9730   132.4660 ha         1 9B0       0.178000
     99 H53         91.1260   141.7930   132.9470 hc         1 9B0       0.049033
    100 H54         91.7330   141.8940   131.2820 hc         1 9B0       0.049033
    101 H55         89.9910   142.0000   131.6020 hc         1 9B0       0.049033
    102 H56         90.0650   139.4430   133.4780 ho         1 9B0       0.445000
    103 H57         90.5150   138.4340   130.2700 hc         1 9B0       0.063200
    104 H58         91.4590   139.7990   129.7080 hc         1 9B0       0.063200
    105 H59         88.4500   140.1810   130.3050 h1         1 9B0       0.099700
    106 H60         89.8400   139.3660   127.6170 h1         1 9B0       0.081700
    107 H61         87.0610   140.5800   128.1520 hc         1 9B0       0.060700
    108 H62         87.0610   138.2730   129.0710 hc         1 9B0       0.040367
    109 H63         85.9690   138.4080   127.6890 hc         1 9B0       0.040367
    110 H64         87.5540   137.6250   127.4960 hc         1 9B0       0.040367
    111 H65         88.1020   141.1460   125.9930 h1         1 9B0       0.041700
    112 H66         89.2450   139.4440   125.3230 ho         1 9B0       0.440000
    113 H67         85.5990   141.0000   126.2260 hc         1 9B0       0.046700
    114 H68         85.6490   139.3620   125.5810 hc         1 9B0       0.046700
    115 H69         85.0570   141.0200   123.8140 hc         1 9B0       0.036033
    116 H70         86.5890   141.8780   124.0790 hc         1 9B0       0.036033
    117 H71         86.5950   140.2260   123.4190 hc         1 9B0       0.036033
@<TRIPOS>BOND
     1     1     2 1   
     2     1     7 1   
     3     1    52 1   
     4     1    53 1   
     5     2     3 1   
     6     2    54 1   
     7     2    55 1   
     8     3     4 1   
     9     3    56 1   
    10     3    57 1   
    11     4     5 1   
    12     4    58 1   
    13     4    59 1   
    14     5     6 1   
    15     5    60 1   
    16     5    61 1   
    17     6     7 1   
    18     6    62 1   
    19     6    63 1   
    20     7     8 1   
    21     7    64 1   
    22     8     9 1   
    23     8    11 1   
    24     9    10 1   
    25     9    65 1   
    26     9    66 1   
    27    10    13 1   
    28    10    67 1   
    29    10    68 1   
    30    11    12 1   
    31    11    69 1   
    32    11    70 1   
    33    12    13 1   
    34    12    71 1   
    35    12    72 1   
    36    13    14 1   
    37    14    15 2   
    38    14    16 1   
    39    16    17 1   
    40    17    18 1   
    41    17    22 1   
    42    17    73 1   
    43    18    19 2   
    44    18    74 1   
    45    19    20 1   
    46    19    75 1   
    47    20    21 1   
    48    20    33 1   
    49    20    76 1   
    50    21    77 1   
    51    21    78 1   
    52    21    79 1   
    53    22    23 1   
    54    22    24 1   
    55    22    25 1   
    56    23    80 1   
    57    23    81 1   
    58    23    82 1   
    59    24    83 1   
    60    25    26 1   
    61    25    84 1   
    62    25    85 1   
    63    26    27 1   
    64    26    86 1   
    65    26    87 1   
    66    27    28 1   
    67    27    29 1   
    68    27    88 1   
    69    28    89 1   
    70    29    30 1   
    71    29    90 1   
    72    29    91 1   
    73    30    31 2   
    74    30    32 1   
    75    32    33 1   
    76    33    34 1   
    77    33    92 1   
    78    34    35 1   
    79    34    36 2   
    80    35    93 1   
    81    35    94 1   
    82    35    95 1   
    83    36    37 1   
    84    36    96 1   
    85    37    38 2   
    86    37    97 1   
    87    38    39 1   
    88    38    98 1   
    89    39    40 1   
    90    39    41 1   
    91    39    42 1   
    92    40    99 1   
    93    40   100 1   
    94    40   101 1   
    95    41   102 1   
    96    42    43 1   
    97    42   103 1   
    98    42   104 1   
    99    43    44 1   
   100    43    45 1   
   101    43   105 1   
   102    44    45 1   
   103    45    46 1   
   104    45   106 1   
   105    46    47 1   
   106    46    48 1   
   107    46   107 1   
   108    47   108 1   
   109    47   109 1   
   110    47   110 1   
   111    48    49 1   
   112    48    50 1   
   113    48   111 1   
   114    49   112 1   
   115    50    51 1   
   116    50   113 1   
   117    50   114 1   
   118    51   115 1   
   119    51   116 1   
   120    51   117 1   
@<TRIPOS>SUBSTRUCTURE
     1 9B0         1 TEMP              0 ****  ****    0 ROOT
