@<TRIPOS>MOLECULE
9B0
  117   120     1     0     0
SMALL
abcg2


@<TRIPOS>ATOM
      1 C35        104.0130   126.9760   131.7380 c3         1 9B0      -0.084900
      2 C36        104.4910   125.5310   131.5500 c3         1 9B0      -0.068400
      3 C37        104.2680   124.9260   130.1630 c3         1 9B0      -0.072400
      4 C38        102.8370   125.0020   129.6200 c3         1 9B0      -0.072400
      5 C39        102.3890   126.4310   129.2810 c3         1 9B0      -0.068400
      6 C40        101.7970   127.2500   130.4360 c3         1 9B0      -0.084900
      7 C34        102.4830   127.0980   131.8080 c3         1 9B0       0.194500
      8 N2         102.0940   128.1420   132.7780 n3         1 9B0      -0.744600
      9 C32        100.6850   128.1150   133.1440 c6         1 9B0       0.157800
     10 C33        100.4400   128.9880   134.3680 c6         1 9B0       0.107000
     11 C31        102.4930   129.5010   132.4360 c6         1 9B0       0.157800
     12 C30        102.3060   130.4160   133.6370 c6         1 9B0       0.107000
     13 N1         100.9310   130.3430   134.1220 n          1 9B0      -0.403800
     14 C29        100.3140   131.4650   134.5560 c          1 9B0       0.640100
     15 O6         100.7860   132.5930   134.4730 o          1 9B0      -0.556000
     16 O5          99.0970   131.2020   135.0850 os         1 9B0      -0.447100
     17 C8          98.3550   132.3050   135.6660 c3         1 9B0       0.234500
     18 C9          97.0660   132.4660   134.9280 c2         1 9B0      -0.214200
     19 C10         96.7730   133.5500   134.2200 c2         1 9B0      -0.203200
     20 C11         95.4560   133.8040   133.5490 c3         1 9B0      -0.032500
     21 C12         95.6060   133.8900   132.0250 c3         1 9B0      -0.084100
     22 C6          98.1720   132.0160   137.1700 c3         1 9B0       0.175000
     23 C7          99.5280   131.9170   137.8650 c3         1 9B0      -0.118100
     24 O4          97.4960   130.7460   137.2520 oh         1 9B0      -0.654000
     25 C5          97.2660   133.0780   137.8150 c3         1 9B0      -0.102400
     26 C4          97.7620   134.5220   137.7550 c3         1 9B0      -0.108400
     27 C3          96.8050   135.5230   138.4070 c3         1 9B0       0.180300
     28 O3          97.3840   136.8310   138.4190 oh         1 9B0      -0.663000
     29 C2          95.4060   135.5570   137.7640 c3         1 9B0      -0.176400
     30 C1          95.4780   135.8740   136.2920 c          1 9B0       0.598100
     31 O2          96.1030   136.8190   135.8450 o          1 9B0      -0.513000
     32 O1          94.8070   134.9970   135.5480 os         1 9B0      -0.447100
     33 C13         94.8520   135.1150   134.0830 c3         1 9B0       0.210500
     34 C14         93.4570   135.4200   133.6100 c2         1 9B0      -0.114400
     35 C15         92.4190   134.3660   133.8630 c3         1 9B0      -0.053900
     36 C16         93.2290   136.5940   132.9980 ce         1 9B0      -0.166000
     37 C17         91.9580   137.0710   132.4890 ce         1 9B0      -0.172000
     38 C18         91.8050   138.2520   131.8820 c2         1 9B0      -0.238200
     39 C19         90.4980   138.8080   131.3710 c3         1 9B0       0.218200
     40 C20         90.2930   140.2180   131.9360 c3         1 9B0      -0.115100
     41 O7          89.3900   137.9720   131.7360 oh         1 9B0      -0.668000
     42 C21         90.5210   138.8050   129.8310 c3         1 9B0      -0.052400
     43 C22         89.2850   139.3700   129.1890 cx         1 9B0       0.101300
     44 O8          89.2660   140.7900   128.8990 op         1 9B0      -0.464000
     45 C23         89.2690   139.8440   127.8090 cx         1 9B0       0.084300
     46 C24         88.0260   139.7770   126.9560 c3         1 9B0      -0.079700
     47 C25         88.0310   138.4750   126.1510 c3         1 9B0      -0.080100
     48 C26         87.8850   141.0420   126.0900 c3         1 9B0       0.177300
     49 O9          88.9600   141.1620   125.1410 oh         1 9B0      -0.670000
     50 C27         86.5790   141.0900   125.3090 c3         1 9B0      -0.071400
     51 C28         86.3020   142.4520   124.6790 c3         1 9B0      -0.086100
     52 H1         104.4250   127.6140   130.9500 hc         1 9B0       0.042450
     53 H2         104.4140   127.3450   132.6850 hc         1 9B0       0.042450
     54 H3         103.9910   124.9070   132.2990 hc         1 9B0       0.037700
     55 H4         105.5600   125.4830   131.7740 hc         1 9B0       0.037700
     56 H5         104.5880   123.8800   130.1900 hc         1 9B0       0.036950
     57 H6         104.9270   125.4300   129.4460 hc         1 9B0       0.036950
     58 H7         102.1380   124.5410   130.3270 hc         1 9B0       0.036950
     59 H8         102.7910   124.3980   128.7090 hc         1 9B0       0.036950
     60 H9         103.2480   126.9630   128.8590 hc         1 9B0       0.037700
     61 H10        101.6410   126.3960   128.4850 hc         1 9B0       0.037700
     62 H11        101.8120   128.3030   130.1420 hc         1 9B0       0.042450
     63 H12        100.7430   126.9830   130.5550 hc         1 9B0       0.042450
     64 H13        102.1200   126.1690   132.2570 h1         1 9B0       0.054700
     65 H15        100.0340   128.4680   132.3270 h1         1 9B0       0.041450
     66 H16        100.3980   127.0880   133.3790 h1         1 9B0       0.041450
     67 H17         99.3810   129.0220   134.5970 h1         1 9B0       0.062200
     68 H18        100.9720   128.5650   135.2280 h1         1 9B0       0.062200
     69 H19        103.5450   129.5120   132.1510 h1         1 9B0       0.041450
     70 H20        101.9120   129.9060   131.5930 h1         1 9B0       0.041450
     71 H21        102.9880   130.1110   134.4390 h1         1 9B0       0.062200
     72 H22        102.5240   131.4460   133.3690 h1         1 9B0       0.062200
     73 H23         98.9550   133.2040   135.5560 h1         1 9B0       0.083700
     74 H24         96.3380   131.6670   135.0300 ha         1 9B0       0.192000
     75 H25         97.5130   134.3450   134.1330 ha         1 9B0       0.177000
     76 H26         94.7800   132.9820   133.7970 hc         1 9B0       0.064700
     77 H27         96.0210   132.9600   131.6360 hc         1 9B0       0.043033
     78 H28         94.6430   134.0680   131.5460 hc         1 9B0       0.043033
     79 H29         96.2790   134.7070   131.7500 hc         1 9B0       0.043033
     80 H30         99.3820   131.7210   138.9290 hc         1 9B0       0.048700
     81 H31        100.1120   131.1020   137.4410 hc         1 9B0       0.048700
     82 H32        100.0960   132.8420   137.7620 hc         1 9B0       0.048700
     83 H33         97.3500   130.5500   138.1860 ho         1 9B0       0.437000
     84 H34         96.2910   132.9990   137.3340 hc         1 9B0       0.050200
     85 H35         97.1260   132.7890   138.8620 hc         1 9B0       0.050200
     86 H36         98.7210   134.6150   138.2660 hc         1 9B0       0.058200
     87 H37         97.9290   134.8280   136.7190 hc         1 9B0       0.058200
     88 H38         96.6680   135.2530   139.4560 h1         1 9B0       0.071700
     89 H39         97.3080   137.1770   137.5160 ho         1 9B0       0.466000
     90 H40         94.8290   136.3510   138.2460 hc         1 9B0       0.083700
     91 H41         94.8810   134.6180   137.9190 hc         1 9B0       0.083700
     92 H42         95.5160   135.9410   133.8410 h1         1 9B0       0.078700
     93 H44         92.4880   133.9970   134.8880 hc         1 9B0       0.046700
     94 H45         91.4080   134.7320   133.7010 hc         1 9B0       0.046700
     95 H46         92.5710   133.5050   133.2050 hc         1 9B0       0.046700
     96 H47         94.0710   137.2690   132.8700 ha         1 9B0       0.176000
     97 H49         91.0870   136.4400   132.6160 ha         1 9B0       0.181000
     98 H51         92.6680   138.8960   131.7330 ha         1 9B0       0.178000
     99 H53         90.2670   140.1790   133.0280 hc         1 9B0       0.049033
    100 H54         91.1090   140.8770   131.6370 hc         1 9B0       0.049033
    101 H55         89.3540   140.6390   131.5780 hc         1 9B0       0.049033
    102 H56         89.3010   137.9880   132.6980 ho         1 9B0       0.445000
    103 H57         90.6340   137.7660   129.5060 hc         1 9B0       0.063200
    104 H58         91.3960   139.3550   129.4800 hc         1 9B0       0.063200
    105 H59         88.3430   139.0090   129.5920 h1         1 9B0       0.099700
    106 H60         90.2140   139.8190   127.2690 h1         1 9B0       0.081700
    107 H61         87.1690   139.7730   127.6380 hc         1 9B0       0.060700
    108 H62         88.1560   137.6180   126.8160 hc         1 9B0       0.040367
    109 H63         87.0970   138.3430   125.6050 hc         1 9B0       0.040367
    110 H64         88.8500   138.4690   125.4300 hc         1 9B0       0.040367
    111 H65         87.9170   141.9050   126.7660 h1         1 9B0       0.041700
    112 H66         89.7510   141.4640   125.6020 ho         1 9B0       0.440000
    113 H67         85.7660   140.8230   125.9900 hc         1 9B0       0.046700
    114 H68         86.6050   140.3200   124.5340 hc         1 9B0       0.046700
    115 H69         85.3630   142.4420   124.1240 hc         1 9B0       0.036033
    116 H70         86.2320   143.2290   125.4450 hc         1 9B0       0.036033
    117 H71         87.0990   142.7330   123.9880 hc         1 9B0       0.036033
@<TRIPOS>BOND
     1     1     2 1   
     2     1     7 1   
     3     1    52 1   
     4     1    53 1   
     5     2     3 1   
     6     2    54 1   
     7     2    55 1   
     8     3     4 1   
     9     3    56 1   
    10     3    57 1   
    11     4     5 1   
    12     4    58 1   
    13     4    59 1   
    14     5     6 1   
    15     5    60 1   
    16     5    61 1   
    17     6     7 1   
    18     6    62 1   
    19     6    63 1   
    20     7     8 1   
    21     7    64 1   
    22     8     9 1   
    23     8    11 1   
    24     9    10 1   
    25     9    65 1   
    26     9    66 1   
    27    10    13 1   
    28    10    67 1   
    29    10    68 1   
    30    11    12 1   
    31    11    69 1   
    32    11    70 1   
    33    12    13 1   
    34    12    71 1   
    35    12    72 1   
    36    13    14 1   
    37    14    15 2   
    38    14    16 1   
    39    16    17 1   
    40    17    18 1   
    41    17    22 1   
    42    17    73 1   
    43    18    19 2   
    44    18    74 1   
    45    19    20 1   
    46    19    75 1   
    47    20    21 1   
    48    20    33 1   
    49    20    76 1   
    50    21    77 1   
    51    21    78 1   
    52    21    79 1   
    53    22    23 1   
    54    22    24 1   
    55    22    25 1   
    56    23    80 1   
    57    23    81 1   
    58    23    82 1   
    59    24    83 1   
    60    25    26 1   
    61    25    84 1   
    62    25    85 1   
    63    26    27 1   
    64    26    86 1   
    65    26    87 1   
    66    27    28 1   
    67    27    29 1   
    68    27    88 1   
    69    28    89 1   
    70    29    30 1   
    71    29    90 1   
    72    29    91 1   
    73    30    31 2   
    74    30    32 1   
    75    32    33 1   
    76    33    34 1   
    77    33    92 1   
    78    34    35 1   
    79    34    36 2   
    80    35    93 1   
    81    35    94 1   
    82    35    95 1   
    83    36    37 1   
    84    36    96 1   
    85    37    38 2   
    86    37    97 1   
    87    38    39 1   
    88    38    98 1   
    89    39    40 1   
    90    39    41 1   
    91    39    42 1   
    92    40    99 1   
    93    40   100 1   
    94    40   101 1   
    95    41   102 1   
    96    42    43 1   
    97    42   103 1   
    98    42   104 1   
    99    43    44 1   
   100    43    45 1   
   101    43   105 1   
   102    44    45 1   
   103    45    46 1   
   104    45   106 1   
   105    46    47 1   
   106    46    48 1   
   107    46   107 1   
   108    47   108 1   
   109    47   109 1   
   110    47   110 1   
   111    48    49 1   
   112    48    50 1   
   113    48   111 1   
   114    49   112 1   
   115    50    51 1   
   116    50   113 1   
   117    50   114 1   
   118    51   115 1   
   119    51   116 1   
   120    51   117 1   
@<TRIPOS>SUBSTRUCTURE
     1 9B0         1 TEMP              0 ****  ****    0 ROOT
