@<TRIPOS>MOLECULE
9B1
   67    72     1     0     0
SMALL
abcg2


@<TRIPOS>ATOM
      1 C4           5.9780     0.8000    -0.2520 cc         1 9B1      -0.123300
      2 C14          3.7300     1.4190    -1.4700 c6         1 9B1      -0.026100
      3 C5           4.6490     0.5590    -0.6690 cc         1 9B1      -0.042300
      4 C6           4.1920    -0.6440    -0.1970 cd         1 9B1      -0.311600
      5 C8           6.4820    -0.2130     0.5080 cd         1 9B1      -0.235300
      6 C9           7.9020     0.0070     0.9000 c5         1 9B1       0.002900
      7 C10          2.8330    -1.1440    -0.3650 c          1 9B1       0.614600
      8 C13          2.6880     0.5470    -2.1530 c6         1 9B1       0.115000
      9 C3           7.0070     1.8650    -0.4610 c5         1 9B1      -0.003100
     10 C2           8.0780     1.5300     0.6190 c5         1 9B1      -0.050000
     11 S7           5.3650    -1.4820     0.7530 ss         1 9B1       0.345000
     12 O11          2.4160    -2.1310     0.2220 o          1 9B1      -0.532000
     13 N12          2.0750    -0.4030    -1.2210 n          1 9B1      -0.248400
     14 C15          0.7430    -0.8220    -1.4780 ca         1 9B1      -0.026000
     15 C16          0.5060    -1.7400    -2.4900 ca         1 9B1      -0.110000
     16 C17         -0.7930    -2.1390    -2.7640 ca         1 9B1      -0.095000
     17 C18         -1.8370    -1.6390    -2.0070 ca         1 9B1      -0.105000
     18 C19         -1.6110    -0.7220    -0.9800 ca         1 9B1      -0.007800
     19 C20         -0.3040    -0.2750    -0.7310 ca         1 9B1      -0.063300
     20 C21         -0.0010     0.7780     0.2970 c3         1 9B1       0.206900
     21 O22          0.3580     0.1470     1.5100 oh         1 9B1      -0.650000
     22 C23         -2.7740    -0.2620    -0.1940 cc         1 9B1      -0.151200
     23 C24         -3.9670     0.1610    -0.8260 cc         1 9B1      -0.084000
     24 C25         -5.0550     0.5370    -0.1020 cd         1 9B1      -0.015200
     25 C26         -5.0400     0.5140     1.3450 c          1 9B1       0.533200
     26 O27         -5.9780     0.8520     2.0580 o          1 9B1      -0.538000
     27 N28         -3.8550     0.0600     1.9030 n          1 9B1      -0.262000
     28 C29         -2.7800    -0.3050     1.1700 cd         1 9B1      -0.009400
     29 C30         -3.7920     0.0010     3.3580 c3         1 9B1       0.073300
     30 N31         -6.2130     1.0240    -0.7260 nu         1 9B1      -0.802900
     31 C32         -7.4400     0.4730    -0.5940 ca         1 9B1       0.393900
     32 C33         -7.6490    -0.8000    -0.0370 ca         1 9B1      -0.261000
     33 C34         -8.9480    -1.2390     0.0100 ca         1 9B1       0.126900
     34 N35         -9.9850    -0.5240    -0.4420 nb         1 9B1      -0.213000
     35 C36         -9.6710     0.6520    -0.9570 ca         1 9B1       0.156900
     36 N37         -8.4670     1.1880    -1.0580 nb         1 9B1      -0.264000
     37 C38          7.7580     2.3090     1.8950 c3         1 9B1      -0.083100
     38 H1           3.2510     2.1550    -0.8170 hc         1 9B1       0.061700
     39 H2           4.2770     1.9790    -2.2310 hc         1 9B1       0.061700
     40 H3           8.1240    -0.2470     1.9380 hc         1 9B1       0.058200
     41 H4           8.5690    -0.5940     0.2730 hc         1 9B1       0.058200
     42 H5           1.8950     1.1660    -2.5680 h1         1 9B1       0.047700
     43 H6           3.1490     0.0060    -2.9860 h1         1 9B1       0.047700
     44 H7           7.4260     1.8020    -1.4710 hc         1 9B1       0.052700
     45 H8           6.6210     2.8810    -0.3420 hc         1 9B1       0.052700
     46 H9           9.7520     1.3030    -0.7480 hc         1 9B1       0.036200
     47 H10          9.5870     2.9250    -0.0720 hc         1 9B1       0.036200
     48 H11         10.2240     1.6180     0.9220 hc         1 9B1       0.036200
     49 H12          1.3360    -2.1390    -3.0580 ha         1 9B1       0.123000
     50 H13         -0.9860    -2.8530    -3.5530 ha         1 9B1       0.120000
     51 H14         -2.8460    -1.9830    -2.2010 ha         1 9B1       0.119000
     52 H15          0.8110     1.4160    -0.0680 h1         1 9B1       0.028200
     53 H16         -0.8750     1.4250     0.4240 h1         1 9B1       0.028200
     54 H17          0.5440     0.8360     2.1560 ho         1 9B1       0.439000
     55 H18         -4.0170     0.2030    -1.9080 ha         1 9B1       0.198000
     56 H19         -1.9190    -0.6410     1.7290 h4         1 9B1       0.230000
     57 H20         -3.9730     0.9840     3.7860 h1         1 9B1       0.059033
     58 H21         -4.5350    -0.6930     3.7430 h1         1 9B1       0.059033
     59 H22         -2.8050    -0.3380     3.6550 h1         1 9B1       0.059033
     60 H23         -6.1720     1.9200    -1.1910 hn         1 9B1       0.514000
     61 H24         -6.8400    -1.4200     0.3190 ha         1 9B1       0.133000
     62 H25         -9.1750    -2.2140     0.4260 h4         1 9B1       0.017100
     63 H26        -10.4910     1.2520    -1.3380 h5         1 9B1       0.042100
     64 H27          8.4630     2.0610     2.6900 hc         1 9B1       0.036200
     65 H28          7.8200     3.3850     1.7180 hc         1 9B1       0.036200
     66 H29          6.7520     2.0900     2.2610 hc         1 9B1       0.036200
     67 C1           9.4880     1.8610     0.1520 c3         1 9B1      -0.083100
@<TRIPOS>BOND
     1     1     3 1   
     2     1     5 2   
     3     1     9 1   
     4     2     3 1   
     5     2     8 1   
     6     2    38 1   
     7     2    39 1   
     8     3     4 2   
     9     4     7 1   
    10     4    11 1   
    11     5     6 1   
    12     5    11 1   
    13     6    10 1   
    14     6    40 1   
    15     6    41 1   
    16     7    12 2   
    17     7    13 1   
    18     8    13 1   
    19     8    42 1   
    20     8    43 1   
    21     9    10 1   
    22     9    44 1   
    23     9    45 1   
    24    10    37 1   
    25    10    67 1   
    26    13    14 1   
    27    14    15 ar  
    28    14    19 ar  
    29    15    16 ar  
    30    15    49 1   
    31    16    17 ar  
    32    16    50 1   
    33    17    18 ar  
    34    17    51 1   
    35    18    19 ar  
    36    18    22 1   
    37    19    20 1   
    38    20    21 1   
    39    20    52 1   
    40    20    53 1   
    41    21    54 1   
    42    22    23 1   
    43    22    28 2   
    44    23    24 2   
    45    23    55 1   
    46    24    25 1   
    47    24    30 1   
    48    25    26 2   
    49    25    27 1   
    50    27    28 1   
    51    27    29 1   
    52    28    56 1   
    53    29    57 1   
    54    29    58 1   
    55    29    59 1   
    56    30    31 1   
    57    30    60 1   
    58    31    32 ar  
    59    31    36 ar  
    60    32    33 ar  
    61    32    61 1   
    62    33    34 ar  
    63    33    62 1   
    64    34    35 ar  
    65    35    36 ar  
    66    35    63 1   
    67    37    64 1   
    68    37    65 1   
    69    37    66 1   
    70    46    67 1   
    71    47    67 1   
    72    48    67 1   
@<TRIPOS>SUBSTRUCTURE
     1 9B1         1 TEMP              0 ****  ****    0 ROOT
