@<TRIPOS>MOLECULE
9B1
   67    72     1     0     0
SMALL
No Charge or Current Charge


@<TRIPOS>ATOM
      1 C4           6.0490     0.6040    -0.0870 cc         1 9B1      -0.123300
      2 C14          4.0790     1.1870    -1.6670 c6         1 9B1      -0.026100
      3 C5           4.7660     0.3590    -0.6190 cc         1 9B1      -0.042300
      4 C6           4.1920    -0.7450    -0.0300 cd         1 9B1      -0.311600
      5 C8           6.4480    -0.2450     0.8620 cd         1 9B1      -0.235300
      6 C9           7.8290     0.1560     1.3090 c5         1 9B1       0.002900
      7 C10          2.8180    -1.1910    -0.3450 c          1 9B1       0.614600
      8 C13          3.0320     0.2850    -2.3560 c6         1 9B1       0.115000
      9 C3           6.9770     1.7070    -0.4420 c5         1 9B1      -0.003100
     10 C2           8.0100     1.6450     0.7590 c5         1 9B1      -0.050000
     11 S7           5.2460    -1.5000     1.2000 ss         1 9B1       0.345000
     12 O11          2.2800    -2.1290     0.2280 o          1 9B1      -0.532000
     13 N12          2.1850    -0.4400    -1.3730 n          1 9B1      -0.248400
     14 C15          0.8090    -0.6440    -1.7300 ca         1 9B1      -0.026000
     15 C16          0.5360    -1.4470    -2.8510 ca         1 9B1      -0.110000
     16 C17         -0.7820    -1.7740    -3.1830 ca         1 9B1      -0.095000
     17 C18         -1.8340    -1.3440    -2.3660 ca         1 9B1      -0.105000
     18 C19         -1.5910    -0.6050    -1.1870 ca         1 9B1      -0.007800
     19 C20         -0.2440    -0.2510    -0.8580 ca         1 9B1      -0.063300
     20 C21          0.0730     0.7510     0.2680 c3         1 9B1       0.206900
     21 O22          0.4810     0.1050     1.4800 oh         1 9B1      -0.650000
     22 C23         -2.7610    -0.2200    -0.3750 cc         1 9B1      -0.151200
     23 C24         -4.0430     0.1110    -0.9340 cc         1 9B1      -0.084000
     24 C25         -5.1370     0.3290    -0.1240 cd         1 9B1      -0.015200
     25 C26         -5.0070     0.2270     1.3840 c          1 9B1       0.533200
     26 O27         -5.9180     0.4880     2.1660 o          1 9B1      -0.538000
     27 N28         -3.7370    -0.1870     1.8530 n          1 9B1      -0.262000
     28 C29         -2.6720    -0.4330     0.9870 cd         1 9B1      -0.009400
     29 C30         -3.5550    -0.3600     3.3130 c3         1 9B1       0.073300
     30 N31         -6.3450     0.6860    -0.7290 nu         1 9B1      -0.802900
     31 C32         -7.6750     0.4040    -0.4370 ca         1 9B1       0.393900
     32 C33         -8.0650    -0.6810     0.3610 ca         1 9B1      -0.261000
     33 C34         -9.4410    -0.8840     0.5530 ca         1 9B1       0.126900
     34 N35        -10.3550    -0.0770    -0.0210 nb         1 9B1      -0.213000
     35 C36         -9.8760     0.9260    -0.7870 ca         1 9B1       0.156900
     36 N37         -8.5780     1.2020    -1.0300 nb         1 9B1      -0.264000
     37 C38          7.6390     2.6820     1.8540 c3         1 9B1      -0.083100
     38 H1           3.5820     2.0520    -1.2080 hc         1 9B1       0.061700
     39 H2           4.7870     1.5760    -2.4110 hc         1 9B1       0.061700
     40 H3           7.9510     0.0990     2.3970 hc         1 9B1       0.058200
     41 H4           8.5790    -0.5200     0.8810 hc         1 9B1       0.058200
     42 H5           2.3990     0.8960    -3.0150 h1         1 9B1       0.047700
     43 H6           3.5490    -0.4540    -2.9840 h1         1 9B1       0.047700
     44 H7           7.4540     1.5070    -1.4080 hc         1 9B1       0.052700
     45 H8           6.4700     2.6760    -0.5200 hc         1 9B1       0.052700
     46 H9           9.7810     1.2270    -0.4760 hc         1 9B1       0.036200
     47 H10          9.5580     2.9440    -0.1120 hc         1 9B1       0.036200
     48 H11         10.1690     1.8430     1.1360 hc         1 9B1       0.036200
     49 H12          1.3490    -1.8110    -3.4750 ha         1 9B1       0.123000
     50 H13         -0.9890    -2.3750    -4.0660 ha         1 9B1       0.120000
     51 H14         -2.8470    -1.6310    -2.6330 ha         1 9B1       0.119000
     52 H15          0.8680     1.4270    -0.0750 h1         1 9B1       0.028200
     53 H16         -0.8010     1.3880     0.4540 h1         1 9B1       0.028200
     54 H17          0.7510     0.8140     2.1020 ho         1 9B1       0.439000
     55 H18         -4.1340     0.2000    -2.0130 ha         1 9B1       0.198000
     56 H19         -1.7920    -0.8250     1.4840 h4         1 9B1       0.230000
     57 H20         -3.7570     0.5890     3.8260 h1         1 9B1       0.059033
     58 H21         -4.2520    -1.1230     3.6840 h1         1 9B1       0.059033
     59 H22         -2.5310    -0.6750     3.5470 h1         1 9B1       0.059033
     60 H23         -6.2500     1.2630    -1.5680 hn         1 9B1       0.514000
     61 H24         -7.3370    -1.3480     0.8090 ha         1 9B1       0.133000
     62 H25         -9.8160    -1.7040     1.1630 h4         1 9B1       0.017100
     63 H26        -10.6120     1.5760    -1.2580 h5         1 9B1       0.042100
     64 H27          8.3110     2.6090     2.7170 hc         1 9B1       0.036200
     65 H28          7.7000     3.7080     1.4700 hc         1 9B1       0.036200
     66 H29          6.6160     2.5260     2.2180 hc         1 9B1       0.036200
     67 C1           9.4630     1.9320     0.3010 c3         1 9B1      -0.083100
@<TRIPOS>BOND
     1     1     3 1   
     2     1     5 2   
     3     1     9 1   
     4     2     3 1   
     5     2     8 1   
     6     2    38 1   
     7     2    39 1   
     8     3     4 2   
     9     4     7 1   
    10     4    11 1   
    11     5     6 1   
    12     5    11 1   
    13     6    10 1   
    14     6    40 1   
    15     6    41 1   
    16     7    12 2   
    17     7    13 1   
    18     8    13 1   
    19     8    42 1   
    20     8    43 1   
    21     9    10 1   
    22     9    44 1   
    23     9    45 1   
    24    10    37 1   
    25    10    67 1   
    26    13    14 1   
    27    14    15 ar  
    28    14    19 ar  
    29    15    16 ar  
    30    15    49 1   
    31    16    17 ar  
    32    16    50 1   
    33    17    18 ar  
    34    17    51 1   
    35    18    19 ar  
    36    18    22 1   
    37    19    20 1   
    38    20    21 1   
    39    20    52 1   
    40    20    53 1   
    41    21    54 1   
    42    22    23 1   
    43    22    28 2   
    44    23    24 2   
    45    23    55 1   
    46    24    25 1   
    47    24    30 1   
    48    25    26 2   
    49    25    27 1   
    50    27    28 1   
    51    27    29 1   
    52    28    56 1   
    53    29    57 1   
    54    29    58 1   
    55    29    59 1   
    56    30    31 1   
    57    30    60 1   
    58    31    32 ar  
    59    31    36 ar  
    60    32    33 ar  
    61    32    61 1   
    62    33    34 ar  
    63    33    62 1   
    64    34    35 ar  
    65    35    36 ar  
    66    35    63 1   
    67    37    64 1   
    68    37    65 1   
    69    37    66 1   
    70    46    67 1   
    71    47    67 1   
    72    48    67 1   
@<TRIPOS>SUBSTRUCTURE
     1 9B1         1 TEMP              0 ****  ****    0 ROOT
