@<TRIPOS>MOLECULE
9B2
   42    45     1     0     0
SMALL
No Charge or Current Charge


@<TRIPOS>ATOM
      1 CAS         -4.9510    -1.2140     0.0370 c6         1 9B2       0.210300
      2 CAT         -6.3340    -0.8920     0.6570 c6         1 9B2      -0.083900
      3 CAU         -7.0740     0.1990    -0.1520 c6         1 9B2      -0.074400
      4 CAV         -6.1800     1.4540    -0.2940 c6         1 9B2      -0.083900
      5 CAW         -4.8030     1.0950    -0.9040 c6         1 9B2       0.210300
      6 NAR         -4.1300     0.0210    -0.1190 nh         1 9B2      -0.806400
      7 CAO         -2.7180    -0.0330    -0.0760 ca         1 9B2       0.348000
      8 CAP         -1.9910     1.0760     0.3820 ca         1 9B2      -0.189000
      9 CAQ         -0.5870     1.0470     0.4330 ca         1 9B2      -0.030500
     10 CAN         -2.0150    -1.1770    -0.4940 ca         1 9B2      -0.189000
     11 CAM         -0.6110    -1.2150    -0.4470 ca         1 9B2      -0.030500
     12 CAL          0.1240    -0.1090     0.0400 ca         1 9B2      -0.208900
     13 CAD          1.5960    -0.1170     0.0590 cc         1 9B2       0.581500
     14 NAE          2.2740     1.0260    -0.0650 nd         1 9B2      -0.647100
     15 CAF          3.6720     0.8910    -0.0220 ca         1 9B2       0.199400
     16 CAK          4.4420     2.0600    -0.1600 ca         1 9B2      -0.110000
     17 CAJ          5.8460     2.0090    -0.1300 ca         1 9B2      -0.074000
     18 CAI          6.4970     0.7780     0.0400 ca         1 9B2      -0.139000
     19 CAH          5.7430    -0.3980     0.1800 ca         1 9B2      -0.038000
     20 CAG          4.3330    -0.3400     0.1490 ca         1 9B2      -0.210600
     21 CAB          3.5120    -1.5630     0.3010 c          1 9B2       0.579600
     22 OAA          3.9730    -2.6810     0.4680 o          1 9B2      -0.542000
     23 NAC          2.1830    -1.3400     0.2450 ns         1 9B2      -0.429400
     24 H1          -4.4380    -1.9360     0.6900 h1         1 9B2       0.040950
     25 H2          -5.0950    -1.6960    -0.9420 h1         1 9B2       0.040950
     26 H3          -6.9420    -1.8050     0.7020 hc         1 9B2       0.050450
     27 H4          -6.1980    -0.5540     1.6930 hc         1 9B2       0.050450
     28 H5          -7.3330    -0.1870    -1.1480 hc         1 9B2       0.042700
     29 H6          -8.0190     0.4620     0.3420 hc         1 9B2       0.042700
     30 H7          -6.6800     2.2030    -0.9210 hc         1 9B2       0.050450
     31 H8          -6.0330     1.9170     0.6920 hc         1 9B2       0.050450
     32 H9          -4.9430     0.7630    -1.9430 h1         1 9B2       0.040950
     33 H10         -4.1850     2.0050    -0.9350 h1         1 9B2       0.040950
     34 H11         -2.5180     1.9670     0.7110 ha         1 9B2       0.118500
     35 H12         -0.0570     1.9260     0.7950 ha         1 9B2       0.122500
     36 H13         -2.5520    -2.0380    -0.8790 ha         1 9B2       0.118500
     37 H14         -0.1050    -2.1090    -0.8090 ha         1 9B2       0.122500
     38 H15          3.9450     3.0180    -0.2920 ha         1 9B2       0.130000
     39 H16          6.4270     2.9230    -0.2380 ha         1 9B2       0.115000
     40 H17          7.5830     0.7340     0.0640 ha         1 9B2       0.118000
     41 H18          6.2540    -1.3500     0.3140 ha         1 9B2       0.134000
     42 H19          1.5940    -2.1470     0.3730 hn         1 9B2       0.328500
@<TRIPOS>BOND
     1     1     2 1   
     2     1     6 1   
     3     1    24 1   
     4     1    25 1   
     5     2     3 1   
     6     2    26 1   
     7     2    27 1   
     8     3     4 1   
     9     3    28 1   
    10     3    29 1   
    11     4     5 1   
    12     4    30 1   
    13     4    31 1   
    14     5     6 1   
    15     5    32 1   
    16     5    33 1   
    17     6     7 1   
    18     7     8 ar  
    19     7    10 ar  
    20     8     9 ar  
    21     8    34 1   
    22     9    12 ar  
    23     9    35 1   
    24    10    11 ar  
    25    10    36 1   
    26    11    12 ar  
    27    11    37 1   
    28    12    13 1   
    29    13    14 2   
    30    13    23 1   
    31    14    15 1   
    32    15    16 ar  
    33    15    20 ar  
    34    16    17 ar  
    35    16    38 1   
    36    17    18 ar  
    37    17    39 1   
    38    18    19 ar  
    39    18    40 1   
    40    19    20 ar  
    41    19    41 1   
    42    20    21 1   
    43    21    22 2   
    44    21    23 1   
    45    23    42 1   
@<TRIPOS>SUBSTRUCTURE
     1 9B2         1 TEMP              0 ****  ****    0 ROOT
