@<TRIPOS>MOLECULE
9B2
   42    45     1     0     0
SMALL
abcg2


@<TRIPOS>ATOM
      1 CAS         -4.9080    -1.1620    -0.0250 c6         1 9B2       0.210300
      2 CAT         -6.2800    -0.8820     0.5760 c6         1 9B2      -0.083900
      3 CAU         -6.9980     0.2430    -0.1560 c6         1 9B2      -0.074400
      4 CAV         -6.1110     1.4790    -0.1920 c6         1 9B2      -0.083900
      5 CAW         -4.7530     1.1450    -0.7840 c6         1 9B2       0.210300
      6 NAR         -4.1080     0.0490    -0.0660 nh         1 9B2      -0.806400
      7 CAO         -2.7350    -0.0400    -0.0740 ca         1 9B2       0.348000
      8 CAP         -1.9380     1.1120     0.0930 ca         1 9B2      -0.189000
      9 CAQ         -0.5660     1.0360     0.1240 ca         1 9B2      -0.030500
     10 CAN         -2.0590    -1.2630    -0.2150 ca         1 9B2      -0.189000
     11 CAM         -0.6780    -1.3280    -0.1770 ca         1 9B2      -0.030500
     12 CAL          0.1040    -0.1870    -0.0060 ca         1 9B2      -0.208900
     13 CAD          1.5690    -0.2050     0.0320 cc         1 9B2       0.581500
     14 NAE          2.2250     0.9040    -0.0380 nd         1 9B2      -0.647100
     15 CAF          3.5930     0.8580     0.0060 ca         1 9B2       0.199400
     16 CAK          4.3090     2.0640    -0.0470 ca         1 9B2      -0.110000
     17 CAJ          5.6860     2.0550    -0.0100 ca         1 9B2      -0.074000
     18 CAI          6.3920     0.8490     0.0770 ca         1 9B2      -0.139000
     19 CAH          5.7050    -0.3440     0.1310 ca         1 9B2      -0.038000
     20 CAG          4.3080    -0.3470     0.0970 ca         1 9B2      -0.210600
     21 CAB          3.5620    -1.5950     0.1690 c          1 9B2       0.579600
     22 OAA          4.0470    -2.7080     0.2570 o          1 9B2      -0.542000
     23 NAC          2.1960    -1.4150     0.1440 ns         1 9B2      -0.429400
     24 H1          -4.4040    -1.9060     0.5910 h1         1 9B2       0.040950
     25 H2          -5.0220    -1.5940    -1.0310 h1         1 9B2       0.040950
     26 H3          -6.8670    -1.8030     0.5490 hc         1 9B2       0.050450
     27 H4          -6.1550    -0.6140     1.6290 hc         1 9B2       0.050450
     28 H5          -7.2280    -0.0720    -1.1790 hc         1 9B2       0.042700
     29 H6          -7.9520     0.4660     0.3270 hc         1 9B2       0.042700
     30 H7          -6.5670     2.2720    -0.7870 hc         1 9B2       0.050450
     31 H8          -5.9780     1.8730     0.8210 hc         1 9B2       0.050450
     32 H9          -4.8770     0.8610    -1.8390 h1         1 9B2       0.040950
     33 H10         -4.1170     2.0260    -0.7700 h1         1 9B2       0.040950
     34 H11         -2.4010     2.0790     0.2370 ha         1 9B2       0.118500
     35 H12          0.0070     1.9400     0.2730 ha         1 9B2       0.122500
     36 H13         -2.6060    -2.1780    -0.3900 ha         1 9B2       0.118500
     37 H14         -0.2330    -2.3040    -0.3270 ha         1 9B2       0.122500
     38 H15          3.7600     2.9940    -0.1180 ha         1 9B2       0.130000
     39 H16          6.2280     2.9910    -0.0510 ha         1 9B2       0.115000
     40 H17          7.4730     0.8570     0.1030 ha         1 9B2       0.118000
     41 H18          6.2410    -1.2810     0.2020 ha         1 9B2       0.134000
     42 H19          1.6430    -2.2550     0.2430 hn         1 9B2       0.328500
@<TRIPOS>BOND
     1     1     2 1   
     2     1     6 1   
     3     1    24 1   
     4     1    25 1   
     5     2     3 1   
     6     2    26 1   
     7     2    27 1   
     8     3     4 1   
     9     3    28 1   
    10     3    29 1   
    11     4     5 1   
    12     4    30 1   
    13     4    31 1   
    14     5     6 1   
    15     5    32 1   
    16     5    33 1   
    17     6     7 1   
    18     7     8 ar  
    19     7    10 ar  
    20     8     9 ar  
    21     8    34 1   
    22     9    12 ar  
    23     9    35 1   
    24    10    11 ar  
    25    10    36 1   
    26    11    12 ar  
    27    11    37 1   
    28    12    13 1   
    29    13    14 2   
    30    13    23 1   
    31    14    15 1   
    32    15    16 ar  
    33    15    20 ar  
    34    16    17 ar  
    35    16    38 1   
    36    17    18 ar  
    37    17    39 1   
    38    18    19 ar  
    39    18    40 1   
    40    19    20 ar  
    41    19    41 1   
    42    20    21 1   
    43    21    22 2   
    44    21    23 1   
    45    23    42 1   
@<TRIPOS>SUBSTRUCTURE
     1 9B2         1 TEMP              0 ****  ****    0 ROOT
