@<TRIPOS>MOLECULE
9B3
   25    25     1     0     0
SMALL
bcc


@<TRIPOS>ATOM
      1 C1           2.1260    -0.2800     0.7940 ca         1 9B3      -0.015000
      2 C2           3.3470    -0.1750     0.1690 ca         1 9B3      -0.154900
      3 CL1          4.4870    -1.4810     0.2610 cl         1 9B3      -0.138400
      4 C3           3.6750     0.9870    -0.5510 ca         1 9B3       0.646200
      5 N1           4.8500     1.1150    -1.2310 nv         1 9B3      -0.941500
      6 N2           2.8050     1.9880    -0.6210 nb         1 9B3      -0.755000
      7 C4           1.6310     1.8790    -0.0120 ca         1 9B3       0.434200
      8 C5           1.2180     0.7750     0.7170 ca         1 9B3      -0.189600
      9 C6          -0.1390     0.7250     1.3570 c3         1 9B3       0.003900
     10 C7          -1.2440     0.3240     0.3750 c3         1 9B3      -0.200700
     11 C8          -1.1020    -1.1110    -0.1700 c          1 9B3       0.930600
     12 O1          -1.6540    -1.3230    -1.2720 o          1 9B3      -0.824300
     13 O2          -0.5150    -1.9490     0.5390 o          1 9B3      -0.824300
     14 C9          -2.5980     0.4630     1.0670 c3         1 9B3       0.130700
     15 SE1         -4.0880     0.0310    -0.1550 sh         1 9B3      -0.438900
     16 H1           1.8690    -1.1780     1.3400 ha         1 9B3       0.180000
     17 H2           5.6370     0.5680    -0.9240 hn         1 9B3       0.405300
     18 H3           5.0900     2.0570    -1.4970 hn         1 9B3       0.405300
     19 H4           0.9710     2.7370    -0.1070 h4         1 9B3       0.010100
     20 H5          -0.1280     0.0330     2.2020 hc         1 9B3       0.030200
     21 H6          -0.3750     1.7120     1.7650 hc         1 9B3       0.030200
     22 H7          -1.2230     1.0210    -0.4690 hc         1 9B3       0.050700
     23 H9          -2.6500    -0.1980     1.9350 h1         1 9B3       0.031200
     24 H10         -2.7450     1.4880     1.4110 h1         1 9B3       0.031200
     25 H11         -5.0880     0.7170     0.6590 hs         1 9B3       0.164800
@<TRIPOS>BOND
     1     1     2 ar  
     2     1     8 ar  
     3     1    16 1   
     4     2     3 1   
     5     2     4 ar  
     6     4     5 1   
     7     4     6 ar  
     8     5    17 1   
     9     5    18 1   
    10     6     7 ar  
    11     7     8 ar  
    12     7    19 1   
    13     8     9 1   
    14     9    10 1   
    15     9    20 1   
    16     9    21 1   
    17    10    11 1   
    18    10    14 1   
    19    10    22 1   
    20    11    12 1   
    21    11    13 1   
    22    14    15 1   
    23    14    23 1   
    24    14    24 1   
    25    15    25 1   
@<TRIPOS>SUBSTRUCTURE
     1 9B3         1 TEMP              0 ****  ****    0 ROOT
