@<TRIPOS>MOLECULE
9B3
   25    25     1     0     0
SMALL
No Charge or Current Charge


@<TRIPOS>ATOM
      1 C1           2.1170    -0.3150     0.8080 ca         1 9B3       0.003000
      2 C2           3.3610    -0.2400     0.1630 ca         1 9B3       0.002000
      3 Cl1          4.5080    -1.5820     0.2920 cl         1 9B3      -0.230000
      4 C3           3.6530     0.9300    -0.5750 ca         1 9B3       0.580900
      5 N1           4.8010     1.1530    -1.2380 nv         1 9B3      -1.051900
      6 N2           2.8400     1.9750    -0.7020 nb         1 9B3      -0.755000
      7 C4           1.6400     1.8920    -0.0790 ca         1 9B3       0.368900
      8 C5           1.2330     0.7760     0.6850 ca         1 9B3      -0.124300
      9 C6          -0.1320     0.7540     1.3600 c3         1 9B3       0.003900
     10 C7          -1.2710     0.3470     0.3900 c3         1 9B3      -0.200700
     11 C8          -1.0670    -1.0780    -0.1530 c          1 9B3       0.720000
     12 O1          -0.8830    -1.2160    -1.3540 o          1 9B3      -0.719000
     13 O2          -1.0490    -2.0080     0.6400 o          1 9B3      -0.719000
     14 C9          -2.6550     0.4770     1.0560 c3         1 9B3       0.178600
     15 SE1         -4.0750     0.2710    -0.1150 sh         1 9B3      -0.486800
     16 H1           1.8460    -1.1960     1.3840 ha         1 9B3       0.162000
     17 H2           5.6020     0.5840    -0.9860 hn         1 9B3       0.460500
     18 H3           4.9780     2.1140    -1.5040 hn         1 9B3       0.460500
     19 H4           0.9810     2.7530    -0.1940 h4         1 9B3       0.010100
     20 H5          -0.1230     0.0750     2.2220 hc         1 9B3       0.030200
     21 H6          -0.3490     1.7500     1.7660 hc         1 9B3       0.030200
     22 H7          -1.2480     1.0430    -0.4570 hc         1 9B3       0.050700
     23 H9          -2.7550    -0.2640     1.8600 h1         1 9B3       0.031200
     24 H10         -2.7460     1.4740     1.5070 h1         1 9B3       0.031200
     25 H11         -5.0490     0.4590     0.8080 hs         1 9B3       0.164800
@<TRIPOS>BOND
     1     1     2 ar  
     2     1     8 ar  
     3     1    16 1   
     4     2     3 1   
     5     2     4 ar  
     6     4     5 1   
     7     4     6 ar  
     8     5    17 1   
     9     5    18 1   
    10     6     7 ar  
    11     7     8 ar  
    12     7    19 1   
    13     8     9 1   
    14     9    10 1   
    15     9    20 1   
    16     9    21 1   
    17    10    11 1   
    18    10    14 1   
    19    10    22 1   
    20    11    12 1   
    21    11    13 1   
    22    14    15 1   
    23    14    23 1   
    24    14    24 1   
    25    15    25 1   
@<TRIPOS>SUBSTRUCTURE
     1 9B3         1 TEMP              0 ****  ****    0 ROOT
