@<TRIPOS>MOLECULE
9B4
   71    70     1     0     0
SMALL
abcg2


@<TRIPOS>ATOM
      1 C01          2.9840     2.0680     0.4370 c3         1 9B4      -0.120100
      2 C02          3.9910     1.2510    -0.3660 c3         1 9B4       0.174300
      3 C03          3.3260     0.4990    -1.5020 c3         1 9B4       0.171600
      4 C05          1.3410    -0.6930    -1.9420 c3         1 9B4       0.172600
      5 C06          0.1010    -1.2220    -1.2200 c3         1 9B4      -0.056000
      6 C07         -0.9780    -1.4560    -2.2860 c3         1 9B4       0.172600
      7 C09         -3.3300    -1.2400    -1.9660 c3         1 9B4       0.171600
      8 C10         -4.3760    -1.5200    -0.9040 c3         1 9B4       0.174300
      9 C13         -4.5120     0.1450     2.3810 c3         1 9B4       0.175300
     10 C15         -3.1640    -0.2030     2.9950 c3         1 9B4      -0.125100
     11 C16         -4.6410    -3.0090    -0.7220 c3         1 9B4      -0.120100
     12 C17          0.4060    -2.5100    -0.4540 c3         1 9B4       0.173600
     13 C23         -0.3960    -0.2100    -0.1880 c3         1 9B4       0.156600
     14 C25         -1.2560     1.9360     0.0680 c3         1 9B4       0.122600
     15 C26         -1.4350     3.2790    -0.6170 c3         1 9B4       0.167300
     16 C27         -2.2840     4.1990     0.2470 c3         1 9B4      -0.128100
     17 C35          6.3150    -0.2020     2.1080 c3         1 9B4       0.175300
     18 C37          5.3670    -1.1310     2.8550 c3         1 9B4      -0.125100
     19 O04          2.3160    -0.3310    -1.0000 os         1 9B4      -0.455500
     20 O08         -2.1540    -1.9620    -1.7020 os         1 9B4      -0.455500
     21 O11         -3.9610    -0.8870     0.2880 os         1 9B4      -0.443000
     22 O14         -4.5280     1.4530     1.8400 oh         1 9B4      -0.713000
     23 O18          0.8350    -3.5110    -1.3490 oh         1 9B4      -0.662000
     24 O24         -0.6120     1.0380    -0.7930 os         1 9B4      -0.451000
     25 O28         -0.2010     3.8740    -0.9680 oh         1 9B4      -0.708000
     26 O33          4.6920     0.3150     0.4250 os         1 9B4      -0.443000
     27 O36          7.1370    -0.9090     1.1990 oh         1 9B4      -0.713000
     28 H013         2.3510     2.6470    -0.2360 hc         1 9B4       0.042533
     29 H012         2.3330     1.4220     1.0250 hc         1 9B4       0.042533
     30 H011         3.4750     2.7680     1.1120 hc         1 9B4       0.042533
     31 H021         4.7060     1.9440    -0.8390 h1         1 9B4       0.030700
     32 H032         2.9140     1.2450    -2.1950 h1         1 9B4       0.034450
     33 H031         4.0770    -0.0770    -2.0630 h1         1 9B4       0.034450
     34 H051         1.7290    -1.4490    -2.6380 h1         1 9B4       0.040200
     35 H052         1.0590     0.1760    -2.5510 h1         1 9B4       0.040200
     36 H072        -1.1730    -0.5100    -2.8040 h1         1 9B4       0.040200
     37 H071        -0.6120    -2.1560    -3.0460 h1         1 9B4       0.040200
     38 H092        -3.7520    -1.5140    -2.9440 h1         1 9B4       0.034450
     39 H091        -3.1320    -0.1610    -1.9910 h1         1 9B4       0.034450
     40 H101        -5.3040    -1.0450    -1.2620 h1         1 9B4       0.030700
     41 H121        -5.1010    -1.8010     1.7660 h1         1 9B4       0.026450
     42 H122        -5.9050    -0.5030     0.8820 h1         1 9B4       0.026450
     43 H131        -5.2760     0.0530     3.1670 h1         1 9B4       0.024700
     44 H151        -2.3610    -0.1440     2.2610 hc         1 9B4       0.043700
     45 H153        -2.9260     0.4780     3.8150 hc         1 9B4       0.043700
     46 H152        -3.1780    -1.2130     3.4060 hc         1 9B4       0.043700
     47 H162        -3.7610    -3.5240    -0.3370 hc         1 9B4       0.042533
     48 H161        -5.4670    -3.1900    -0.0340 hc         1 9B4       0.042533
     49 H163        -4.9120    -3.4630    -1.6760 hc         1 9B4       0.042533
     50 H172         1.1710    -2.3020     0.3040 h1         1 9B4       0.030200
     51 H171        -0.4980    -2.8220     0.0850 h1         1 9B4       0.030200
     52 H231        -1.3290    -0.5820     0.2550 h1         1 9B4       0.039200
     53 H232         0.3340    -0.1180     0.6280 h1         1 9B4       0.039200
     54 H251        -0.6800     2.0740     0.9990 h1         1 9B4       0.029700
     55 H252        -2.2390     1.5480     0.3670 h1         1 9B4       0.029700
     56 H261        -1.9540     3.1100    -1.5670 h1         1 9B4       0.082700
     57 H273        -1.7970     4.4000     1.2050 hc         1 9B4       0.042367
     58 H271        -2.4560     5.1530    -0.2510 hc         1 9B4       0.042367
     59 H272        -3.2550     3.7500     0.4580 hc         1 9B4       0.042367
     60 H351         6.9310     0.3260     2.8510 h1         1 9B4       0.024700
     61 H371         4.7380    -1.6970     2.1690 hc         1 9B4       0.043700
     62 H373         5.9270    -1.8410     3.4660 hc         1 9B4       0.043700
     63 H372         4.7170    -0.5660     3.5240 hc         1 9B4       0.043700
     64 H141        -4.1930     2.0580     2.5080 ho         1 9B4       0.498000
     65 H1           0.9660    -4.3200    -0.8480 ho         1 9B4       0.442000
     66 H2           0.2900     4.0450    -0.1580 ho         1 9B4       0.492000
     67 H361         7.6380    -1.5620     1.6980 ho         1 9B4       0.498000
     68 C34          5.5860     0.8840     1.3440 c3         1 9B4       0.167600
     69 C12         -4.9360    -0.8230     1.2940 c3         1 9B4       0.167600
     70 H341         5.0690     1.5150     2.0790 h1         1 9B4       0.026450
     71 H342         6.3150     1.5290     0.8300 h1         1 9B4       0.026450
@<TRIPOS>BOND
     1     1     2 1   
     2     1    28 1   
     3     1    29 1   
     4     1    30 1   
     5     2     3 1   
     6     2    26 1   
     7     2    31 1   
     8     3    19 1   
     9     3    32 1   
    10     3    33 1   
    11     4     5 1   
    12     4    19 1   
    13     4    34 1   
    14     4    35 1   
    15     5     6 1   
    16     5    12 1   
    17     5    13 1   
    18     6    20 1   
    19     6    36 1   
    20     6    37 1   
    21     7     8 1   
    22     7    20 1   
    23     7    38 1   
    24     7    39 1   
    25     8    11 1   
    26     8    21 1   
    27     8    40 1   
    28     9    10 1   
    29     9    22 1   
    30     9    43 1   
    31     9    69 1   
    32    10    44 1   
    33    10    45 1   
    34    10    46 1   
    35    11    47 1   
    36    11    48 1   
    37    11    49 1   
    38    12    23 1   
    39    12    50 1   
    40    12    51 1   
    41    13    24 1   
    42    13    52 1   
    43    13    53 1   
    44    14    15 1   
    45    14    24 1   
    46    14    54 1   
    47    14    55 1   
    48    15    16 1   
    49    15    25 1   
    50    15    56 1   
    51    16    57 1   
    52    16    58 1   
    53    16    59 1   
    54    17    18 1   
    55    17    27 1   
    56    17    60 1   
    57    17    68 1   
    58    18    61 1   
    59    18    62 1   
    60    18    63 1   
    61    21    69 1   
    62    22    64 1   
    63    23    65 1   
    64    25    66 1   
    65    26    68 1   
    66    27    67 1   
    67    41    69 1   
    68    42    69 1   
    69    68    70 1   
    70    68    71 1   
@<TRIPOS>SUBSTRUCTURE
     1 9B4         1 TEMP              0 ****  ****    0 ROOT
