@<TRIPOS>MOLECULE
9B4
   71    70     1     0     0
SMALL
No Charge or Current Charge


@<TRIPOS>ATOM
      1 C01          4.0590     2.2570     0.7200 c3         1 9B4      -0.120100
      2 C02          4.6370     1.3840    -0.4240 c3         1 9B4       0.174300
      3 C03          3.5600     0.9350    -1.4530 c3         1 9B4       0.171600
      4 C05          1.3790    -0.1190    -1.6180 c3         1 9B4       0.172600
      5 C06          0.2570    -0.7600    -0.7500 c3         1 9B4      -0.056000
      6 C07         -0.9270    -1.1500    -1.6840 c3         1 9B4       0.172600
      7 C09         -3.1810    -2.0530    -1.6380 c3         1 9B4       0.171600
      8 C10         -4.3250    -2.4420    -0.6580 c3         1 9B4       0.174300
      9 C13         -6.3570     0.0700     1.3580 c3         1 9B4       0.175300
     10 C15         -5.2290     0.7920     2.1260 c3         1 9B4      -0.125100
     11 C16         -3.9010    -3.5060     0.3860 c3         1 9B4      -0.120100
     12 C17          0.7990    -2.0220    -0.0120 c3         1 9B4       0.173600
     13 C23         -0.2310     0.2590     0.3240 c3         1 9B4       0.156600
     14 C25         -1.3100     2.4110     0.5790 c3         1 9B4       0.122600
     15 C26         -1.8940     3.5710    -0.2680 c3         1 9B4       0.167300
     16 C27         -2.2110     4.8250     0.5680 c3         1 9B4      -0.128100
     17 C35          7.0490    -0.9650     1.3570 c3         1 9B4       0.175300
     18 C37          6.0590    -1.8680     2.1240 c3         1 9B4      -0.125100
     19 O04          2.4620     0.2990    -0.7660 os         1 9B4      -0.455500
     20 O08         -2.0080    -1.6740    -0.8890 os         1 9B4      -0.455500
     21 O11         -4.7610    -1.2360     0.0140 os         1 9B4      -0.443000
     22 O14         -6.8020     0.9110     0.2800 oh         1 9B4      -0.713000
     23 O18          1.2640    -3.0240    -0.9320 oh         1 9B4      -0.662000
     24 O24         -0.7600     1.4320    -0.3260 os         1 9B4      -0.451000
     25 O28         -0.9570     3.9090    -1.2970 oh         1 9B4      -0.708000
     26 O33          5.2580     0.1990     0.1270 os         1 9B4      -0.443000
     27 O36          7.5470    -1.6800     0.2120 oh         1 9B4      -0.713000
     28 H013         3.4290     3.0540     0.3070 hc         1 9B4       0.042533
     29 H012         3.4460     1.6560     1.4020 hc         1 9B4       0.042533
     30 H011         4.8590     2.7350     1.2960 hc         1 9B4       0.042533
     31 H021         5.3830     1.9770    -0.9700 h1         1 9B4       0.030700
     32 H032         3.2050     1.8180    -1.9990 h1         1 9B4       0.034450
     33 H031         4.0150     0.2490    -2.1790 h1         1 9B4       0.034450
     34 H051         1.7340    -0.8440    -2.3630 h1         1 9B4       0.040200
     35 H052         0.9730     0.7420    -2.1650 h1         1 9B4       0.040200
     36 H072        -1.2620    -0.2650    -2.2410 h1         1 9B4       0.040200
     37 H071        -0.5940    -1.8940    -2.4200 h1         1 9B4       0.040200
     38 H092        -2.9570    -2.9100    -2.2870 h1         1 9B4       0.034450
     39 H091        -3.5230    -1.2270    -2.2750 h1         1 9B4       0.034450
     40 H101        -5.1480    -2.8530    -1.2590 h1         1 9B4       0.030700
     41 H121        -5.7570    -1.9890     1.7050 h1         1 9B4       0.026450
     42 H122        -6.7780    -1.7750     0.2690 h1         1 9B4       0.026450
     43 H131        -7.1880    -0.0800     2.0610 h1         1 9B4       0.024700
     44 H151        -4.3800     1.0110     1.4670 hc         1 9B4       0.043700
     45 H153        -5.5880     1.7370     2.5510 hc         1 9B4       0.043700
     46 H152        -4.8680     0.1660     2.9520 hc         1 9B4       0.043700
     47 H162        -3.2100    -3.0810     1.1240 hc         1 9B4       0.042533
     48 H161        -4.7720    -3.9110     0.9140 hc         1 9B4       0.042533
     49 H163        -3.3980    -4.3450    -0.1090 hc         1 9B4       0.042533
     50 H172         1.6160    -1.7250     0.6600 h1         1 9B4       0.030200
     51 H171         0.0040    -2.4390     0.6220 h1         1 9B4       0.030200
     52 H231        -1.0020    -0.2080     0.9510 h1         1 9B4       0.039200
     53 H232         0.6030     0.5330     0.9840 h1         1 9B4       0.039200
     54 H251        -0.5270     2.7970     1.2460 h1         1 9B4       0.029700
     55 H252        -2.1050     1.9740     1.1970 h1         1 9B4       0.029700
     56 H261        -2.8310     3.2110    -0.7180 h1         1 9B4       0.082700
     57 H273        -1.3040     5.2220     1.0400 hc         1 9B4       0.042367
     58 H271        -2.6440     5.6100    -0.0630 hc         1 9B4       0.042367
     59 H272        -2.9340     4.5860     1.3580 hc         1 9B4       0.042367
     60 H351         7.8860    -0.7490     2.0350 h1         1 9B4       0.024700
     61 H371         5.2110    -2.1550     1.4890 hc         1 9B4       0.043700
     62 H373         6.5540    -2.7830     2.4710 hc         1 9B4       0.043700
     63 H372         5.6650    -1.3430     3.0020 hc         1 9B4       0.043700
     64 H141        -7.0750     1.7680     0.6790 ho         1 9B4       0.498000
     65 H1           1.6020    -3.7720    -0.3930 ho         1 9B4       0.442000
     66 H2          -0.4790     3.0610    -1.4590 ho         1 9B4       0.492000
     67 H361         7.9180    -2.5290     0.5440 ho         1 9B4       0.498000
     68 C34          6.4350     0.4080     0.9440 c3         1 9B4       0.167600
     69 C12         -5.9440    -1.3430     0.8380 c3         1 9B4       0.167600
     70 H341         6.1810     0.9610     1.8570 h1         1 9B4       0.026450
     71 H342         7.1890     0.9890     0.3960 h1         1 9B4       0.026450
@<TRIPOS>BOND
     1     1     2 1   
     2     1    28 1   
     3     1    29 1   
     4     1    30 1   
     5     2     3 1   
     6     2    26 1   
     7     2    31 1   
     8     3    19 1   
     9     3    32 1   
    10     3    33 1   
    11     4     5 1   
    12     4    19 1   
    13     4    34 1   
    14     4    35 1   
    15     5     6 1   
    16     5    12 1   
    17     5    13 1   
    18     6    20 1   
    19     6    36 1   
    20     6    37 1   
    21     7     8 1   
    22     7    20 1   
    23     7    38 1   
    24     7    39 1   
    25     8    11 1   
    26     8    21 1   
    27     8    40 1   
    28     9    10 1   
    29     9    22 1   
    30     9    43 1   
    31     9    69 1   
    32    10    44 1   
    33    10    45 1   
    34    10    46 1   
    35    11    47 1   
    36    11    48 1   
    37    11    49 1   
    38    12    23 1   
    39    12    50 1   
    40    12    51 1   
    41    13    24 1   
    42    13    52 1   
    43    13    53 1   
    44    14    15 1   
    45    14    24 1   
    46    14    54 1   
    47    14    55 1   
    48    15    16 1   
    49    15    25 1   
    50    15    56 1   
    51    16    57 1   
    52    16    58 1   
    53    16    59 1   
    54    17    18 1   
    55    17    27 1   
    56    17    60 1   
    57    17    68 1   
    58    18    61 1   
    59    18    62 1   
    60    18    63 1   
    61    21    69 1   
    62    22    64 1   
    63    23    65 1   
    64    25    66 1   
    65    26    68 1   
    66    27    67 1   
    67    41    69 1   
    68    42    69 1   
    69    68    70 1   
    70    68    71 1   
@<TRIPOS>SUBSTRUCTURE
     1 9B4         1 TEMP              0 ****  ****    0 ROOT
