@<TRIPOS>MOLECULE
9B5
   56    58     1     0     0
SMALL
abcg2


@<TRIPOS>ATOM
      1 CAA         -8.3890     2.0150    -0.2660 c3         1 9B5      -0.177100
      2 CAT         -7.4220     1.0630    -0.9240 c          1 9B5       0.604100
      3 OAD         -7.7760     0.2810    -1.7980 o          1 9B5      -0.619100
      4 N           -6.1600     1.1280    -0.4690 ns         1 9B5      -0.500900
      5 CA          -5.0930     0.3010    -0.9740 c3         1 9B5       0.042700
      6 CB          -4.4070     0.9340    -2.1880 c3         1 9B5      -0.107100
      7 C           -4.0720     0.1020     0.1380 c          1 9B5       0.606100
      8 O           -3.9780     0.9060     1.0590 o          1 9B5      -0.615100
      9 NBD         -3.2510    -0.9500     0.0390 n          1 9B5      -0.386800
     10 CAO         -3.2700    -2.0190    -0.9480 c5         1 9B5       0.070000
     11 CBA         -2.5330    -3.1470    -0.2340 c5         1 9B5       0.155300
     12 OAG         -3.3480    -3.7970     0.7110 oh         1 9B5      -0.651000
     13 CAN         -1.4570    -2.3850     0.5220 c5         1 9B5      -0.085400
     14 CBC         -2.1710    -1.1070     0.9940 c5         1 9B5       0.031700
     15 CAU         -1.2140     0.0750     0.9420 c          1 9B5       0.599100
     16 OAE         -0.9950     0.6840    -0.0910 o          1 9B5      -0.585100
     17 NAQ         -0.5800     0.3270     2.0960 ns         1 9B5      -0.502900
     18 CAM          0.4960     1.2830     2.1820 c3         1 9B5       0.153300
     19 CAW          1.7520     0.8390     1.4720 ca         1 9B5      -0.090300
     20 CAI          2.1560    -0.4930     1.4790 ca         1 9B5      -0.098500
     21 CAK          3.3270    -0.8830     0.8510 ca         1 9B5      -0.094000
     22 CAH          2.5510     1.7680     0.8160 ca         1 9B5      -0.098500
     23 CAJ          3.7240     1.3840     0.1840 ca         1 9B5      -0.094000
     24 CAY          4.1330     0.0510     0.1960 ca         1 9B5      -0.007000
     25 CAZ          5.3700    -0.3590    -0.4720 cc         1 9B5      -0.182000
     26 SAS          5.4140    -1.7610    -1.4790 ss         1 9B5      -0.032400
     27 CAL          7.0740    -1.4730    -1.7800 cc         1 9B5       0.412300
     28 NAP          7.5600    -0.4310    -1.1900 nd         1 9B5      -0.636000
     29 CAX          6.6130     0.2150    -0.4420 cd         1 9B5       0.300300
     30 CAB          7.0070     1.4250     0.3380 c3         1 9B5      -0.121400
     31 H1          -9.1320     1.4450     0.2910 hc         1 9B5       0.060700
     32 H2          -7.9120     2.7160     0.4160 hc         1 9B5       0.060700
     33 H3          -8.9200     2.5820    -1.0300 hc         1 9B5       0.060700
     34 H4          -5.9200     1.8070     0.2360 hn         1 9B5       0.337500
     35 H5          -5.5250    -0.6570    -1.2700 h1         1 9B5       0.081700
     36 H6          -3.9990     1.9120    -1.9310 hc         1 9B5       0.051367
     37 H7          -3.5920     0.3150    -2.5610 hc         1 9B5       0.051367
     38 H8          -5.1270     1.0610    -2.9950 hc         1 9B5       0.051367
     39 H9          -4.2840    -2.3030    -1.2290 h1         1 9B5       0.060700
     40 H10         -2.7350    -1.7310    -1.8580 h1         1 9B5       0.060700
     41 H11         -2.1040    -3.8500    -0.9560 h1         1 9B5       0.053700
     42 H12         -4.0610    -4.2460     0.2450 ho         1 9B5       0.448000
     43 H13         -1.0330    -2.9530     1.3490 hc         1 9B5       0.071700
     44 H14         -0.6460    -2.1430    -0.1680 hc         1 9B5       0.071700
     45 H15         -2.5700    -1.2320     2.0050 h1         1 9B5       0.081700
     46 H16         -0.8180    -0.2050     2.9170 hn         1 9B5       0.318500
     47 H17          0.1740     2.2490     1.7890 h1         1 9B5       0.061200
     48 H18          0.7080     1.4330     3.2420 h1         1 9B5       0.061200
     49 H19          1.5560    -1.2420     1.9820 ha         1 9B5       0.113000
     50 H20          3.6240    -1.9240     0.8840 ha         1 9B5       0.118000
     51 H21          2.2480     2.8080     0.7830 ha         1 9B5       0.113000
     52 H22          4.3060     2.1250    -0.3470 ha         1 9B5       0.118000
     53 H23          7.6480    -2.1310    -2.4180 h5         1 9B5       0.052100
     54 H24          7.0310     2.3160    -0.2930 hc         1 9B5       0.051367
     55 H25          6.3170     1.6180     1.1570 hc         1 9B5       0.051367
     56 H26          8.0050     1.2950     0.7550 hc         1 9B5       0.051367
@<TRIPOS>BOND
     1     1     2 1   
     2     1    31 1   
     3     1    32 1   
     4     1    33 1   
     5     2     3 2   
     6     2     4 1   
     7     4     5 1   
     8     4    34 1   
     9     5     6 1   
    10     5     7 1   
    11     5    35 1   
    12     6    36 1   
    13     6    37 1   
    14     6    38 1   
    15     7     8 2   
    16     7     9 1   
    17     9    10 1   
    18     9    14 1   
    19    10    11 1   
    20    10    39 1   
    21    10    40 1   
    22    11    12 1   
    23    11    13 1   
    24    11    41 1   
    25    12    42 1   
    26    13    14 1   
    27    13    43 1   
    28    13    44 1   
    29    14    15 1   
    30    14    45 1   
    31    15    16 2   
    32    15    17 1   
    33    17    18 1   
    34    17    46 1   
    35    18    19 1   
    36    18    47 1   
    37    18    48 1   
    38    19    20 ar  
    39    19    22 ar  
    40    20    21 ar  
    41    20    49 1   
    42    21    24 ar  
    43    21    50 1   
    44    22    23 ar  
    45    22    51 1   
    46    23    24 ar  
    47    23    52 1   
    48    24    25 1   
    49    25    26 1   
    50    25    29 2   
    51    26    27 1   
    52    27    28 2   
    53    27    53 1   
    54    28    29 1   
    55    29    30 1   
    56    30    54 1   
    57    30    55 1   
    58    30    56 1   
@<TRIPOS>SUBSTRUCTURE
     1 9B5         1 TEMP              0 ****  ****    0 ROOT
