@<TRIPOS>MOLECULE
9B5
   56    58     1     0     0
SMALL
No Charge or Current Charge


@<TRIPOS>ATOM
      1 CAA         -8.6130     2.4070    -0.0760 c3         1 9B5      -0.177100
      2 CAT         -7.7430     1.4260    -0.8500 c          1 9B5       0.604100
      3 OAD         -8.1550     0.8000    -1.8160 o          1 9B5      -0.619100
      4 N           -6.4600     1.2930    -0.3740 ns         1 9B5      -0.500900
      5 CA          -5.4170     0.4150    -0.9530 c3         1 9B5       0.042700
      6 CB          -4.8390     1.0390    -2.2470 c3         1 9B5      -0.107100
      7 C           -4.3030     0.1170     0.1030 c          1 9B5       0.606100
      8 O           -4.2350     0.7530     1.1520 o          1 9B5      -0.615100
      9 NBD         -3.3310    -0.8660    -0.1930 n          1 9B5      -0.386800
     10 CAO         -3.5750    -1.9960    -1.1270 c5         1 9B5       0.070000
     11 CBA         -2.5450    -3.0710    -0.6600 c5         1 9B5       0.155300
     12 OAG         -3.0610    -3.9050     0.3840 oh         1 9B5      -0.651000
     13 CAN         -1.3870    -2.1820    -0.1460 c5         1 9B5      -0.085400
     14 CBC         -2.1390    -1.0870     0.6710 c5         1 9B5       0.031700
     15 CAU         -1.1940     0.1450     0.8310 c          1 9B5       0.599100
     16 OAE         -1.1460     1.1450     0.1240 o          1 9B5      -0.585100
     17 NAQ         -0.3790    -0.0460     1.9280 ns         1 9B5      -0.502900
     18 CAM          0.6740     0.8770     2.3450 c3         1 9B5       0.153300
     19 CAW          2.0120     0.5000     1.7260 ca         1 9B5      -0.090300
     20 CAI          2.8710    -0.4010     2.3830 ca         1 9B5      -0.098500
     21 CAK          4.1020    -0.7560     1.8050 ca         1 9B5      -0.094000
     22 CAH          2.3940     1.0330     0.4810 ca         1 9B5      -0.098500
     23 CAJ          3.6260     0.6770    -0.0960 ca         1 9B5      -0.094000
     24 CAY          4.4930    -0.2120     0.5680 ca         1 9B5      -0.007000
     25 CAZ          5.7710    -0.6010    -0.0250 cc         1 9B5      -0.182000
     26 SAS          6.3200    -2.2390    -0.2080 ss         1 9B5      -0.032400
     27 CAL          7.7850    -1.5750    -0.8860 cc         1 9B5       0.412300
     28 NAP          7.8740    -0.2480    -0.9370 nd         1 9B5      -0.636000
     29 CAX          6.7160     0.3230    -0.4280 cd         1 9B5       0.300300
     30 CAB          6.6190     1.8240    -0.3510 c3         1 9B5      -0.121400
     31 H1          -8.6210     2.1200     0.9810 hc         1 9B5       0.060700
     32 H2          -8.1150     3.3820    -0.0500 hc         1 9B5       0.060700
     33 H3          -9.6280     2.4820    -0.4820 hc         1 9B5       0.060700
     34 H4          -6.2200     1.8370     0.4490 hn         1 9B5       0.337500
     35 H5          -5.8870    -0.5440    -1.2060 h1         1 9B5       0.081700
     36 H6          -4.3700     2.0060    -2.0310 hc         1 9B5       0.051367
     37 H7          -4.0830     0.3900    -2.7010 hc         1 9B5       0.051367
     38 H8          -5.6300     1.2000    -2.9890 hc         1 9B5       0.051367
     39 H9          -4.6050    -2.3720    -1.0710 h1         1 9B5       0.060700
     40 H10         -3.3740    -1.6950    -2.1630 h1         1 9B5       0.060700
     41 H11         -2.2170    -3.6950    -1.5040 h1         1 9B5       0.053700
     42 H12         -3.7340    -4.4940    -0.0230 ho         1 9B5       0.448000
     43 H13         -0.6620    -2.7380     0.4590 hc         1 9B5       0.071700
     44 H14         -0.8360    -1.7440    -0.9870 hc         1 9B5       0.071700
     45 H15         -2.4420    -1.4500     1.6620 h1         1 9B5       0.081700
     46 H16         -0.4940    -0.9090     2.4460 hn         1 9B5       0.318500
     47 H17          0.4040     1.9030     2.0600 h1         1 9B5       0.061200
     48 H18          0.7530     0.8490     3.4400 h1         1 9B5       0.061200
     49 H19          2.5850    -0.8280     3.3420 ha         1 9B5       0.113000
     50 H20          4.7570    -1.4520     2.3240 ha         1 9B5       0.118000
     51 H21          1.7340     1.7190    -0.0440 ha         1 9B5       0.113000
     52 H22          3.8980     1.0850    -1.0660 ha         1 9B5       0.118000
     53 H23          8.5590    -2.2530    -1.2240 h5         1 9B5       0.052100
     54 H24          6.0860     2.2260    -1.2190 hc         1 9B5       0.051367
     55 H25          6.0880     2.1420     0.5530 hc         1 9B5       0.051367
     56 H26          7.6130     2.2860    -0.3260 hc         1 9B5       0.051367
@<TRIPOS>BOND
     1     1     2 1   
     2     1    31 1   
     3     1    32 1   
     4     1    33 1   
     5     2     3 2   
     6     2     4 1   
     7     4     5 1   
     8     4    34 1   
     9     5     6 1   
    10     5     7 1   
    11     5    35 1   
    12     6    36 1   
    13     6    37 1   
    14     6    38 1   
    15     7     8 2   
    16     7     9 1   
    17     9    10 1   
    18     9    14 1   
    19    10    11 1   
    20    10    39 1   
    21    10    40 1   
    22    11    12 1   
    23    11    13 1   
    24    11    41 1   
    25    12    42 1   
    26    13    14 1   
    27    13    43 1   
    28    13    44 1   
    29    14    15 1   
    30    14    45 1   
    31    15    16 2   
    32    15    17 1   
    33    17    18 1   
    34    17    46 1   
    35    18    19 1   
    36    18    47 1   
    37    18    48 1   
    38    19    20 ar  
    39    19    22 ar  
    40    20    21 ar  
    41    20    49 1   
    42    21    24 ar  
    43    21    50 1   
    44    22    23 ar  
    45    22    51 1   
    46    23    24 ar  
    47    23    52 1   
    48    24    25 1   
    49    25    26 1   
    50    25    29 2   
    51    26    27 1   
    52    27    28 2   
    53    27    53 1   
    54    28    29 1   
    55    29    30 1   
    56    30    54 1   
    57    30    55 1   
    58    30    56 1   
@<TRIPOS>SUBSTRUCTURE
     1 9B5         1 TEMP              0 ****  ****    0 ROOT
