@<TRIPOS>MOLECULE
9B6
   50    54     1     0     0
SMALL
abcg2


@<TRIPOS>ATOM
      1 C01         -1.0420    -1.8650    -2.1800 c3         1 9B6       0.154900
      2 O05         -1.9920    -1.3940    -1.2220 os         1 9B6      -0.445300
      3 C06         -1.6820    -0.3070    -0.5320 ca         1 9B6       0.617300
      4 N07         -0.4980     0.2090    -0.6300 nb         1 9B6      -0.765000
      5 C08         -0.2130     1.3110     0.0900 ca         1 9B6       0.296000
      6 C09          1.0490     1.9110     0.0370 ca         1 9B6       0.043600
      7 N10          2.1980     1.5960    -0.6460 n          1 9B6      -0.189200
      8 C11          2.4580     0.4100    -1.3680 ca         1 9B6       0.070600
      9 C12          2.6160     0.4410    -2.7410 ca         1 9B6      -0.062000
     10 C14          2.8810    -0.7350    -3.4310 ca         1 9B6      -0.117000
     11 C16          2.9910    -1.9300    -2.7370 ca         1 9B6      -0.081000
     12 C18          2.8440    -1.9710    -1.3550 ca         1 9B6      -0.151000
     13 C20          2.5740    -0.7940    -0.6790 ca         1 9B6       0.149100
     14 O21          2.4380    -0.6860     0.6880 os         1 9B6      -0.399100
     15 C22          1.9690    -1.6830     1.4480 c3         1 9B6       0.523000
     16 F23          2.8760    -2.6430     1.6490 f          1 9B6      -0.105000
     17 F24          1.6600    -1.1680     2.6280 f          1 9B6      -0.105000
     18 F25          0.8850    -2.2640     0.9430 f          1 9B6      -0.105000
     19 C26          3.1850     2.5360    -0.3540 c          1 9B6       0.593000
     20 O27          4.3240     2.5310    -0.7710 o          1 9B6      -0.540000
     21 N28          2.5920     3.4320     0.4920 ns         1 9B6      -0.484600
     22 C30          1.2940     3.0660     0.7520 ca         1 9B6      -0.056400
     23 C31          0.2960     3.6300     1.5550 ca         1 9B6       0.358900
     24 N33         -0.8890     3.0700     1.6460 nb         1 9B6      -0.640000
     25 C34         -1.1460     1.9470     0.9420 ca         1 9B6       0.196000
     26 C35         -2.4270     1.3470     1.0240 ca         1 9B6      -0.018000
     27 C37         -2.7200     0.2250     0.3020 ca         1 9B6      -0.053000
     28 C38         -4.0300    -0.4210     0.3820 cc         1 9B6      -0.177000
     29 C39         -4.9880    -0.6340    -0.6560 cc         1 9B6       0.307300
     30 C40         -4.8820    -0.2790    -2.0950 c3         1 9B6      -0.132400
     31 N44         -6.0630    -1.1900    -0.1820 nd         1 9B6      -0.368300
     32 O45         -5.8520    -1.3660     1.1570 os         1 9B6      -0.071700
     33 C46         -4.6470    -0.9030     1.4910 cd         1 9B6       0.209300
     34 C47         -4.2350    -1.0020     2.9090 c3         1 9B6      -0.140400
     35 H011        -0.0850    -2.0970    -1.7140 h1         1 9B6       0.050033
     36 H012        -1.4760    -2.7680    -2.6020 h1         1 9B6       0.050033
     37 H013        -0.8780    -1.1300    -2.9660 h1         1 9B6       0.050033
     38 H12          2.5170     1.3820    -3.2620 ha         1 9B6       0.136000
     39 H14          2.9990    -0.7140    -4.5050 ha         1 9B6       0.126000
     40 H16          3.2000    -2.8480    -3.2670 ha         1 9B6       0.122000
     41 H18          2.9550    -2.9160    -0.8430 ha         1 9B6       0.137000
     42 H28          3.0700     4.2360     0.8710 hn         1 9B6       0.475000
     43 H31          0.4800     4.5340     2.1200 h4         1 9B6       0.031100
     44 H35         -3.1760     1.8050     1.6580 ha         1 9B6       0.143000
     45 H401        -4.1960    -0.9450    -2.6150 hc         1 9B6       0.057700
     46 H402        -5.8540    -0.3410    -2.5780 hc         1 9B6       0.057700
     47 H403        -4.5050     0.7370    -2.2100 hc         1 9B6       0.057700
     48 H471        -4.8130    -0.3230     3.5370 hc         1 9B6       0.065700
     49 H472        -4.3790    -2.0120     3.2910 hc         1 9B6       0.065700
     50 H473        -3.1850    -0.7420     3.0140 hc         1 9B6       0.065700
@<TRIPOS>BOND
     1     1     2 1   
     2     1    35 1   
     3     1    36 1   
     4     1    37 1   
     5     2     3 1   
     6     3     4 ar  
     7     3    27 ar  
     8     4     5 ar  
     9     5     6 ar  
    10     5    25 ar  
    11     6     7 1   
    12     6    22 ar  
    13     7     8 1   
    14     7    19 1   
    15     8     9 ar  
    16     8    13 ar  
    17     9    10 ar  
    18     9    38 1   
    19    10    11 ar  
    20    10    39 1   
    21    11    12 ar  
    22    11    40 1   
    23    12    13 ar  
    24    12    41 1   
    25    13    14 1   
    26    14    15 1   
    27    15    16 1   
    28    15    17 1   
    29    15    18 1   
    30    19    20 2   
    31    19    21 1   
    32    21    22 1   
    33    21    42 1   
    34    22    23 ar  
    35    23    24 ar  
    36    23    43 1   
    37    24    25 ar  
    38    25    26 ar  
    39    26    27 ar  
    40    26    44 1   
    41    27    28 1   
    42    28    29 1   
    43    28    33 2   
    44    29    30 1   
    45    29    31 2   
    46    30    45 1   
    47    30    46 1   
    48    30    47 1   
    49    31    32 1   
    50    32    33 1   
    51    33    34 1   
    52    34    48 1   
    53    34    49 1   
    54    34    50 1   
@<TRIPOS>SUBSTRUCTURE
     1 9B6         1 TEMP              0 ****  ****    0 ROOT
