@<TRIPOS>MOLECULE
9B6
   50    54     1     0     0
SMALL
No Charge or Current Charge


@<TRIPOS>ATOM
      1 C01         -1.1000    -1.8470    -2.3310 c3         1 9B6       0.154900
      2 O05         -2.0500    -1.3430    -1.3710 os         1 9B6      -0.445300
      3 C06         -1.7810    -0.2290    -0.6080 ca         1 9B6       0.617300
      4 N07         -0.5520     0.3220    -0.6990 nb         1 9B6      -0.765000
      5 C08         -0.2250     1.3570     0.1160 ca         1 9B6       0.296000
      6 C09          1.0450     1.9820     0.0750 ca         1 9B6       0.043600
      7 N10          2.2430     1.7370    -0.6960 n          1 9B6      -0.189200
      8 C11          2.5100     0.5070    -1.3920 ca         1 9B6       0.070600
      9 C12          3.0210     0.5720    -2.7030 ca         1 9B6      -0.062000
     10 C14          3.2950    -0.6020    -3.4220 ca         1 9B6      -0.117000
     11 C16          3.0850    -1.8540    -2.8260 ca         1 9B6      -0.081000
     12 C18          2.6220    -1.9350    -1.5020 ca         1 9B6      -0.151000
     13 C20          2.3400    -0.7580    -0.7680 ca         1 9B6       0.149100
     14 O21          1.9790    -0.7920     0.5730 os         1 9B6      -0.399100
     15 C22          1.6610    -1.9910     1.3030 c3         1 9B6       0.523000
     16 F23          2.7310    -2.8090     1.4290 f          1 9B6      -0.105000
     17 F24          1.2500    -1.6880     2.5540 f          1 9B6      -0.105000
     18 F25          0.6620    -2.6950     0.7220 f          1 9B6      -0.105000
     19 C26          3.1960     2.7370    -0.4250 c          1 9B6       0.593000
     20 O27          4.3310     2.8470    -0.8570 o          1 9B6      -0.540000
     21 N28          2.5810     3.5470     0.4870 ns         1 9B6      -0.484600
     22 C30          1.2850     3.1190     0.8260 ca         1 9B6      -0.056400
     23 C31          0.3230     3.6290     1.7090 ca         1 9B6       0.358900
     24 N33         -0.8850     3.0210     1.8280 nb         1 9B6      -0.640000
     25 C34         -1.1560     1.9260     1.0500 ca         1 9B6       0.196000
     26 C35         -2.4230     1.3270     1.1340 ca         1 9B6      -0.018000
     27 C37         -2.7640     0.2380     0.3040 ca         1 9B6      -0.053000
     28 C38         -4.1160    -0.3530     0.4090 cc         1 9B6      -0.177000
     29 C39         -4.9990    -0.9200    -0.5450 cc         1 9B6       0.307300
     30 C40         -4.8480    -0.7870    -2.0350 c3         1 9B6      -0.132400
     31 N44         -6.0530    -1.5090    -0.0050 nd         1 9B6      -0.368300
     32 O45         -5.8430    -1.3660     1.4080 os         1 9B6      -0.071700
     33 C46         -4.6660    -0.6950     1.6110 cd         1 9B6       0.209300
     34 C47         -4.1650    -0.5540     3.0250 c3         1 9B6      -0.140400
     35 H011        -0.1700    -2.1560    -1.8380 h1         1 9B6       0.050033
     36 H012        -1.5120    -2.7190    -2.8530 h1         1 9B6       0.050033
     37 H013        -0.8590    -1.0830    -3.0820 h1         1 9B6       0.050033
     38 H12          3.1820     1.5380    -3.1750 ha         1 9B6       0.136000
     39 H14          3.6710    -0.5410    -4.4420 ha         1 9B6       0.126000
     40 H16          3.3010    -2.7640    -3.3840 ha         1 9B6       0.122000
     41 H18          2.5050    -2.9210    -1.0650 ha         1 9B6       0.137000
     42 H28          3.0510     4.3520     0.8950 hn         1 9B6       0.475000
     43 H31          0.5070     4.5140     2.3170 h4         1 9B6       0.031100
     44 H35         -3.1550     1.7450     1.8180 ha         1 9B6       0.143000
     45 H401        -4.4390    -1.7050    -2.4700 hc         1 9B6       0.057700
     46 H402        -5.8200    -0.5990    -2.5070 hc         1 9B6       0.057700
     47 H403        -4.1900     0.0490    -2.2980 hc         1 9B6       0.057700
     48 H471        -4.4110     0.4320     3.4330 hc         1 9B6       0.065700
     49 H472        -4.6210    -1.3070     3.6780 hc         1 9B6       0.065700
     50 H473        -3.0780    -0.6880     3.0770 hc         1 9B6       0.065700
@<TRIPOS>BOND
     1     1     2 1   
     2     1    35 1   
     3     1    36 1   
     4     1    37 1   
     5     2     3 1   
     6     3     4 ar  
     7     3    27 ar  
     8     4     5 ar  
     9     5     6 ar  
    10     5    25 ar  
    11     6     7 1   
    12     6    22 ar  
    13     7     8 1   
    14     7    19 1   
    15     8     9 ar  
    16     8    13 ar  
    17     9    10 ar  
    18     9    38 1   
    19    10    11 ar  
    20    10    39 1   
    21    11    12 ar  
    22    11    40 1   
    23    12    13 ar  
    24    12    41 1   
    25    13    14 1   
    26    14    15 1   
    27    15    16 1   
    28    15    17 1   
    29    15    18 1   
    30    19    20 2   
    31    19    21 1   
    32    21    22 1   
    33    21    42 1   
    34    22    23 ar  
    35    23    24 ar  
    36    23    43 1   
    37    24    25 ar  
    38    25    26 ar  
    39    26    27 ar  
    40    26    44 1   
    41    27    28 1   
    42    28    29 1   
    43    28    33 2   
    44    29    30 1   
    45    29    31 2   
    46    30    45 1   
    47    30    46 1   
    48    30    47 1   
    49    31    32 1   
    50    32    33 1   
    51    33    34 1   
    52    34    48 1   
    53    34    49 1   
    54    34    50 1   
@<TRIPOS>SUBSTRUCTURE
     1 9B6         1 TEMP              0 ****  ****    0 ROOT
