@<TRIPOS>MOLECULE
9B7
   64    70     1     0     0
SMALL
No Charge or Current Charge


@<TRIPOS>ATOM
      1 C11        -28.8220    -2.3900    25.4020 c5         1 9B7       0.309300
      2 C13        -28.6380    -0.9450    27.2530 c5         1 9B7       0.148300
      3 C14        -29.5400     0.3330    27.2240 c3         1 9B7       0.229600
      4 C19        -27.2700    -0.8700    26.4950 c5         1 9B7       0.177300
      5 O22        -24.5840     0.7090    26.6090 os         1 9B7      -0.630400
      6 C23        -24.4570     1.7160    27.6370 c3         1 9B7       0.229600
      7 C24        -25.3350     2.9780    27.3470 c5         1 9B7       0.148300
      8 C25        -26.5330     2.8010    26.3530 c5         1 9B7       0.177300
      9 C27        -26.3180     3.9190    25.2540 c5         1 9B7       0.103800
     10 C29        -24.7810     4.2030    25.4130 c5         1 9B7       0.309300
     11 C31        -22.5620     3.7100    24.2890 cc         1 9B7       0.199500
     12 C35        -20.6460     2.9570    23.0120 c          1 9B7       0.645000
     13 C37        -22.0240     2.7610    23.5010 cd         1 9B7       0.123500
     14 C39        -24.0430     2.1520    24.0380 cc         1 9B7       0.430900
     15 C02        -32.4080    -1.5010    22.1160 c          1 9B7       0.645000
     16 N03        -33.1090    -2.6160    22.5280 nc         1 9B7      -0.704600
     17 C04        -32.7370    -3.4300    23.5080 cd         1 9B7       0.670600
     18 N05        -31.5460    -3.1390    24.1710 na         1 9B7      -0.890200
     19 C06        -30.7690    -2.0520    23.8160 cc         1 9B7       0.199500
     20 C07        -31.1410    -1.2130    22.8350 cd         1 9B7       0.123500
     21 N08        -30.1640    -0.2200    22.7350 nd         1 9B7      -0.625000
     22 C09        -29.2600    -0.5150    23.6830 cc         1 9B7       0.430900
     23 N10        -29.6030    -1.6630    24.3930 na         1 9B7      -0.212500
     24 O12        -29.3360    -2.1000    26.7180 os         1 9B7      -0.452500
     25 O15        -29.2080     1.2160    26.1300 os         1 9B7      -0.630400
     26 P16        -29.2130     2.8040    26.4060 p5         1 9B7       1.420300
     27 O18        -30.3180     3.1830    27.3300 o          1 9B7      -0.819500
     28 O20        -26.2020    -0.9050    27.4950 os         1 9B7      -0.584900
     29 P21        -24.6500    -0.8360    27.0630 p5         1 9B7       1.420300
     30 O26        -27.7730     2.9400    27.1180 os         1 9B7      -0.584900
     31 O28        -27.1440     5.0860    25.4390 oh         1 9B7      -0.761000
     32 N30        -23.8260     3.3750    24.6650 na         1 9B7      -0.212500
     33 N32        -21.8840     4.8540    24.6960 na         1 9B7      -0.890200
     34 C33        -20.5800     5.0510    24.2280 cc         1 9B7       0.670600
     35 N34        -20.0310     4.1390    23.4400 nd         1 9B7      -0.704600
     36 O36        -20.0390     2.1820    22.2850 o          1 9B7      -0.551100
     37 N38        -22.9780     1.7570    23.3260 nd         1 9B7      -0.625000
     38 O40        -24.5370     4.0740    26.8280 os         1 9B7      -0.452500
     39 O41        -23.7480    -1.0940    28.2200 o          1 9B7      -0.819500
     40 O42        -24.3850    -1.7890    25.9480 o          1 9B7      -0.819500
     41 C43        -27.2810    -2.1100    25.5120 c5         1 9B7       0.103800
     42 O44        -26.5200    -3.2390    25.9870 oh         1 9B7      -0.761000
     43 H1         -28.9830    -3.4490    25.1690 h2         1 9B7       0.068700
     44 H2         -28.4590    -1.1630    28.3140 h1         1 9B7       0.067700
     45 H3         -29.4040     0.8420    28.1880 h1         1 9B7       0.047700
     46 H4         -30.5930     0.0290    27.1650 h1         1 9B7       0.047700
     47 H5         -27.1770     0.0340    25.8990 h1         1 9B7       0.051700
     48 H6         -24.7780     1.3200    28.6100 h1         1 9B7       0.047700
     49 H7         -23.4090     2.0250    27.7440 h1         1 9B7       0.047700
     50 H8         -25.7140     3.3130    28.3220 h1         1 9B7       0.067700
     51 H9         -26.5200     1.8330    25.8590 h1         1 9B7       0.051700
     52 H10        -26.5120     3.5030    24.2550 h1         1 9B7       0.083700
     53 H11        -24.5680     5.2310    25.0950 h2         1 9B7       0.068700
     54 H12        -24.9810     1.6130    24.1200 h5         1 9B7       0.109600
     55 H15        -28.3530     0.0430    23.8840 h5         1 9B7       0.109600
     56 H17        -28.0770     4.7190    25.3060 ho         1 9B7       0.579000
     57 H18        -22.2910     5.5370    25.3280 hn         1 9B7       0.508000
     58 H19        -20.0500     5.9460    24.5340 h5         1 9B7       0.030300
     59 H21        -26.8920    -1.8100    24.5280 h1         1 9B7       0.083700
     60 H22        -25.5750    -2.8790    25.9950 ho         1 9B7       0.579000
     61 O17        -29.2480     3.6170    25.1570 o          1 9B7      -0.819500
     62 H13        -33.3130    -4.2950    23.8150 h5         1 9B7       0.030300
     63 O01        -32.8380    -0.8090    21.2020 o          1 9B7      -0.551100
     64 H14        -31.2810    -3.7470    24.9400 hn         1 9B7       0.508000
@<TRIPOS>BOND
     1     1    23 1   
     2     1    24 1   
     3     1    41 1   
     4     1    43 1   
     5     2     3 1   
     6     2     4 1   
     7     2    24 1   
     8     2    44 1   
     9     3    25 1   
    10     3    45 1   
    11     3    46 1   
    12     4    28 1   
    13     4    41 1   
    14     4    47 1   
    15     5     6 1   
    16     5    29 1   
    17     6     7 1   
    18     6    48 1   
    19     6    49 1   
    20     7     8 1   
    21     7    38 1   
    22     7    50 1   
    23     8     9 1   
    24     8    30 1   
    25     8    51 1   
    26     9    10 1   
    27     9    31 1   
    28     9    52 1   
    29    10    32 1   
    30    10    38 1   
    31    10    53 1   
    32    11    13 2   
    33    11    32 1   
    34    11    33 1   
    35    12    13 1   
    36    12    35 1   
    37    12    36 2   
    38    13    37 1   
    39    14    32 1   
    40    14    37 2   
    41    14    54 1   
    42    15    16 1   
    43    15    20 1   
    44    15    63 2   
    45    16    17 2   
    46    17    18 1   
    47    17    62 1   
    48    18    19 1   
    49    18    64 1   
    50    19    20 2   
    51    19    23 1   
    52    20    21 1   
    53    21    22 2   
    54    22    23 1   
    55    22    55 1   
    56    25    26 1   
    57    26    27 1   
    58    26    30 1   
    59    26    61 1   
    60    28    29 1   
    61    29    39 1   
    62    29    40 1   
    63    31    56 1   
    64    33    34 1   
    65    33    57 1   
    66    34    35 2   
    67    34    58 1   
    68    41    42 1   
    69    41    59 1   
    70    42    60 1   
@<TRIPOS>SUBSTRUCTURE
     1 9B7         1 TEMP              0 ****  ****    0 ROOT
