@<TRIPOS>MOLECULE
9B7
   64    70     1     0     0
SMALL
abcg2


@<TRIPOS>ATOM
      1 C11        -28.9990    -1.3000    25.4040 c5         1 9B7       0.309300
      2 C13        -29.2660    -0.4340    27.5710 c5         1 9B7       0.148300
      3 C14        -29.6750     0.9020    28.1490 c3         1 9B7       0.229600
      4 C19        -27.7780    -0.5900    27.3000 c5         1 9B7       0.177300
      5 O22        -24.8190     0.0660    27.8410 os         1 9B7      -0.630400
      6 C23        -24.5200     1.2470    28.6030 c3         1 9B7       0.229600
      7 C24        -24.8010     2.5030    27.8090 c5         1 9B7       0.148300
      8 C25        -26.2100     2.6150    27.2470 c5         1 9B7       0.177300
      9 C27        -26.0440     3.5270    26.0230 c5         1 9B7       0.103800
     10 C29        -24.6410     3.1210    25.5480 c5         1 9B7       0.309300
     11 C31        -24.6300     2.3010    23.1350 cc         1 9B7       0.199500
     12 C35        -24.6010     0.9330    21.1070 c          1 9B7       0.645000
     13 C37        -24.6980     1.0560    22.5380 cd         1 9B7       0.123500
     14 C39        -24.7990     0.7360    24.6550 cc         1 9B7       0.430900
     15 C02        -28.0850     0.3680    20.8380 c          1 9B7       0.645000
     16 N03        -28.0640    -0.9270    20.2930 nc         1 9B7      -0.704600
     17 C04        -28.2350    -1.9760    21.0320 cd         1 9B7       0.670600
     18 N05        -28.4590    -1.9700    22.3730 na         1 9B7      -0.890200
     19 C06        -28.5000    -0.7510    22.9720 cc         1 9B7       0.199500
     20 C07        -28.2980     0.4170    22.2620 cd         1 9B7       0.123500
     21 N08        -28.3960     1.4930    23.1240 nd         1 9B7      -0.625000
     22 C09        -28.6490     0.9800    24.3000 cc         1 9B7       0.430900
     23 N10        -28.7350    -0.4040    24.2690 na         1 9B7      -0.212500
     24 O12        -29.8860    -0.6500    26.2880 os         1 9B7      -0.452500
     25 O15        -29.2240     1.9840    27.3210 os         1 9B7      -0.630400
     26 P16        -28.6690     3.3700    27.9640 p5         1 9B7       1.420300
     27 O18        -29.2840     3.6210    29.2940 o          1 9B7      -0.819500
     28 O20        -27.0980    -0.8710    28.5050 os         1 9B7      -0.584900
     29 P21        -25.5050    -1.2320    28.5430 p5         1 9B7       1.420300
     30 O26        -27.0980     3.0330    28.2630 os         1 9B7      -0.584900
     31 O28        -26.0600     4.8980    26.3530 oh         1 9B7      -0.761000
     32 N30        -24.6830     2.1070    24.4840 na         1 9B7      -0.212500
     33 N32        -24.5210     3.4390    22.3990 na         1 9B7      -0.890200
     34 C33        -24.4550     3.2830    21.0500 cc         1 9B7       0.670600
     35 N34        -24.4820     2.1520    20.4190 nd         1 9B7      -0.704600
     36 O36        -24.6060    -0.1350    20.4910 o          1 9B7      -0.551100
     37 N38        -24.8060     0.0880    23.5190 nd         1 9B7      -0.625000
     38 O40        -23.9480     2.5760    26.6490 os         1 9B7      -0.452500
     39 O41        -25.1460    -1.3100    29.9830 o          1 9B7      -0.819500
     40 O42        -25.2580    -2.3810    27.6140 o          1 9B7      -0.819500
     41 C43        -27.7210    -1.6410    26.1840 c5         1 9B7       0.103800
     42 O44        -27.7960    -2.9630    26.6710 oh         1 9B7      -0.761000
     43 H1         -29.4620    -2.2040    25.0060 h2         1 9B7       0.068700
     44 H2         -29.5950    -1.2140    28.2650 h1         1 9B7       0.067700
     45 H3         -29.2540     0.9820    29.1520 h1         1 9B7       0.047700
     46 H4         -30.7620     0.9540    28.2280 h1         1 9B7       0.047700
     47 H5         -27.4110     0.3360    26.8730 h1         1 9B7       0.051700
     48 H6         -25.1180     1.2800    29.5140 h1         1 9B7       0.047700
     49 H7         -23.4660     1.2190    28.8860 h1         1 9B7       0.047700
     50 H8         -24.5990     3.3600    28.4590 h1         1 9B7       0.067700
     51 H9         -26.5070     1.6420    26.8710 h1         1 9B7       0.051700
     52 H10        -26.7830     3.3060    25.2530 h1         1 9B7       0.083700
     53 H11        -24.1030     3.9850    25.1560 h2         1 9B7       0.068700
     54 H12        -24.8480     0.3020    25.6400 h5         1 9B7       0.109600
     55 H15        -28.8070     1.5260    25.2160 h5         1 9B7       0.109600
     56 H17        -26.9970     5.0670    26.5900 ho         1 9B7       0.579000
     57 H18        -24.4990     4.3670    22.8000 hn         1 9B7       0.508000
     58 H19        -24.3710     4.2110    20.4950 h5         1 9B7       0.030300
     59 H21        -26.8430    -1.5110    25.5510 h1         1 9B7       0.083700
     60 H22        -26.9230    -3.0990    27.0980 ho         1 9B7       0.579000
     61 O17        -28.7330     4.3870    26.8660 o          1 9B7      -0.819500
     62 H13        -28.2080    -2.9640    20.5850 h5         1 9B7       0.030300
     63 O01        -27.9390     1.3540    20.1130 o          1 9B7      -0.551100
     64 H14        -28.5830    -2.8410    22.8710 hn         1 9B7       0.508000
@<TRIPOS>BOND
     1     1    23 1   
     2     1    24 1   
     3     1    41 1   
     4     1    43 1   
     5     2     3 1   
     6     2     4 1   
     7     2    24 1   
     8     2    44 1   
     9     3    25 1   
    10     3    45 1   
    11     3    46 1   
    12     4    28 1   
    13     4    41 1   
    14     4    47 1   
    15     5     6 1   
    16     5    29 1   
    17     6     7 1   
    18     6    48 1   
    19     6    49 1   
    20     7     8 1   
    21     7    38 1   
    22     7    50 1   
    23     8     9 1   
    24     8    30 1   
    25     8    51 1   
    26     9    10 1   
    27     9    31 1   
    28     9    52 1   
    29    10    32 1   
    30    10    38 1   
    31    10    53 1   
    32    11    13 2   
    33    11    32 1   
    34    11    33 1   
    35    12    13 1   
    36    12    35 1   
    37    12    36 2   
    38    13    37 1   
    39    14    32 1   
    40    14    37 2   
    41    14    54 1   
    42    15    16 1   
    43    15    20 1   
    44    15    63 2   
    45    16    17 2   
    46    17    18 1   
    47    17    62 1   
    48    18    19 1   
    49    18    64 1   
    50    19    20 2   
    51    19    23 1   
    52    20    21 1   
    53    21    22 2   
    54    22    23 1   
    55    22    55 1   
    56    25    26 1   
    57    26    27 1   
    58    26    30 1   
    59    26    61 1   
    60    28    29 1   
    61    29    39 1   
    62    29    40 1   
    63    31    56 1   
    64    33    34 1   
    65    33    57 1   
    66    34    35 2   
    67    34    58 1   
    68    41    42 1   
    69    41    59 1   
    70    42    60 1   
@<TRIPOS>SUBSTRUCTURE
     1 9B7         1 TEMP              0 ****  ****    0 ROOT
