@<TRIPOS>MOLECULE
9B8
   70    73     1     0     0
SMALL
abcg2


@<TRIPOS>ATOM
      1 CAO         -7.3180     2.0210     2.3740 cy         1 9B8       0.162100
      2 OAV         -7.4750     1.4200     3.6620 oq         1 9B8      -0.442000
      3 CAP         -6.1230     0.9520     3.6530 cy         1 9B8       0.162100
      4 CBF         -5.8580     1.5510     2.2630 cy         1 9B8      -0.230700
      5 CAY         -5.5980     0.5440     1.1720 c          1 9B8       0.613100
      6 OAF         -6.3060    -0.4450     1.0400 o          1 9B8      -0.607100
      7 NAU         -4.5540     0.8260     0.3750 ns         1 9B8      -0.490900
      8 CBH         -4.1340    -0.0130    -0.7220 c3         1 9B8       0.045700
      9 CBJ         -4.3570     0.6650    -2.1070 c3         1 9B8      -0.046000
     10 CAD         -4.0090    -0.3290    -3.2170 c3         1 9B8      -0.090100
     11 CAB         -5.8390     1.0270    -2.2220 c3         1 9B8      -0.090100
     12 CAC         -3.5170     1.9310    -2.2810 c3         1 9B8      -0.090100
     13 CAZ         -2.6750    -0.3890    -0.4790 c          1 9B8       0.606100
     14 OAG         -1.8780     0.4600    -0.0980 o          1 9B8      -0.617100
     15 N           -2.2850    -1.6540    -0.6950 n          1 9B8      -0.386800
     16 CD2         -3.0970    -2.8270    -0.9870 c5         1 9B8       0.069000
     17 CG          -2.2380    -3.9700    -0.4580 c5         1 9B8       0.154300
     18 OD1         -2.3030    -4.0790     0.9440 oh         1 9B8      -0.653000
     19 CB          -0.8420    -3.4980    -0.8260 c5         1 9B8      -0.083400
     20 CA          -0.8820    -1.9910    -0.5320 c5         1 9B8       0.032700
     21 C           -0.0170    -1.2160    -1.5170 c          1 9B8       0.599100
     22 O           -0.3990    -0.9540    -2.6470 o          1 9B8      -0.606100
     23 NAT          1.2100    -0.9150    -1.0740 ns         1 9B8      -0.498900
     24 CAN          2.1870    -0.2510    -1.9170 c3         1 9B8       0.153300
     25 CBA          3.4280     0.0610    -1.1320 ca         1 9B8      -0.111300
     26 CAI          4.5660    -0.7300    -1.2490 ca         1 9B8      -0.094500
     27 CAK          5.7080    -0.4450    -0.5170 ca         1 9B8      -0.100000
     28 CAJ          3.4600     1.1470    -0.2610 ca         1 9B8      -0.094500
     29 CAL          4.6000     1.4400     0.4690 ca         1 9B8      -0.100000
     30 CBC          5.7410     0.6430     0.3560 ca         1 9B8       0.002000
     31 CBD          6.9470     0.9510     1.1250 cc         1 9B8      -0.189000
     32 SAW          8.5070     0.9070     0.3850 ss         1 9B8      -0.029400
     33 CAM          9.2100     1.3530     1.8810 cc         1 9B8       0.416300
     34 NAS          8.3700     1.5220     2.8470 nd         1 9B8      -0.637000
     35 CBB          7.0810     1.2980     2.4430 cd         1 9B8       0.304300
     36 CAA          5.9800     1.4160     3.4430 c3         1 9B8      -0.122400
     37 H1          -8.0020     1.6050     1.6300 h1         1 9B8       0.059950
     38 H2          -7.4390     3.1060     2.4000 h1         1 9B8       0.059950
     39 H3          -5.5220     1.3910     4.4520 h1         1 9B8       0.059950
     40 H4          -6.0550    -0.1370     3.7160 h1         1 9B8       0.059950
     41 H5          -5.1310     2.3620     2.2630 hc         1 9B8       0.075700
     42 H6          -3.9990     1.6420     0.5780 hn         1 9B8       0.332500
     43 H7          -4.7730    -0.8940    -0.7010 h1         1 9B8       0.087700
     44 H8          -4.6320    -1.2250    -3.1610 hc         1 9B8       0.040700
     45 H9          -4.1920     0.1270    -4.1920 hc         1 9B8       0.040700
     46 H10         -2.9630    -0.6350    -3.1890 hc         1 9B8       0.040700
     47 H11         -6.1310     1.7950    -1.5050 hc         1 9B8       0.040700
     48 H12         -6.0460     1.4150    -3.2210 hc         1 9B8       0.040700
     49 H13         -6.4790     0.1570    -2.0650 hc         1 9B8       0.040700
     50 H14         -2.4500     1.7190    -2.3330 hc         1 9B8       0.040700
     51 H15         -3.8000     2.4220    -3.2140 hc         1 9B8       0.040700
     52 H16         -3.6810     2.6520    -1.4780 hc         1 9B8       0.040700
     53 H17         -4.0740    -2.7850    -0.5050 h1         1 9B8       0.062200
     54 H18         -3.2550    -2.9480    -2.0620 h1         1 9B8       0.062200
     55 H19         -2.4980    -4.9130    -0.9520 h1         1 9B8       0.053700
     56 H20         -3.1990    -4.3270     1.1930 ho         1 9B8       0.450000
     57 H21         -0.0560    -4.0080    -0.2720 hc         1 9B8       0.071700
     58 H22         -0.6760    -3.6780    -1.8900 hc         1 9B8       0.071700
     59 H23         -0.5600    -1.7890     0.4940 h1         1 9B8       0.080700
     60 H24          1.4710    -1.1570    -0.1320 hn         1 9B8       0.322500
     61 H25          2.4350    -0.8810    -2.7740 h1         1 9B8       0.059200
     62 H26          1.7550     0.6710    -2.3140 h1         1 9B8       0.059200
     63 H27          4.5640    -1.5800    -1.9200 ha         1 9B8       0.120500
     64 H28          6.5770    -1.0840    -0.6190 ha         1 9B8       0.121000
     65 H29          2.5900     1.7860    -0.1650 ha         1 9B8       0.120500
     66 H30          4.6090     2.3100     1.1130 ha         1 9B8       0.121000
     67 H31         10.2800     1.4740     1.9800 h5         1 9B8       0.053100
     68 H32          5.6990     2.4580     3.6070 hc         1 9B8       0.052700
     69 H33          5.0870     0.8790     3.1270 hc         1 9B8       0.052700
     70 H34          6.3000     1.0100     4.4030 hc         1 9B8       0.052700
@<TRIPOS>BOND
     1     1     2 1   
     2     1     4 1   
     3     1    37 1   
     4     1    38 1   
     5     2     3 1   
     6     3     4 1   
     7     3    39 1   
     8     3    40 1   
     9     4     5 1   
    10     4    41 1   
    11     5     6 2   
    12     5     7 1   
    13     7     8 1   
    14     7    42 1   
    15     8     9 1   
    16     8    13 1   
    17     8    43 1   
    18     9    10 1   
    19     9    11 1   
    20     9    12 1   
    21    10    44 1   
    22    10    45 1   
    23    10    46 1   
    24    11    47 1   
    25    11    48 1   
    26    11    49 1   
    27    12    50 1   
    28    12    51 1   
    29    12    52 1   
    30    13    14 2   
    31    13    15 1   
    32    15    16 1   
    33    15    20 1   
    34    16    17 1   
    35    16    53 1   
    36    16    54 1   
    37    17    18 1   
    38    17    19 1   
    39    17    55 1   
    40    18    56 1   
    41    19    20 1   
    42    19    57 1   
    43    19    58 1   
    44    20    21 1   
    45    20    59 1   
    46    21    22 2   
    47    21    23 1   
    48    23    24 1   
    49    23    60 1   
    50    24    25 1   
    51    24    61 1   
    52    24    62 1   
    53    25    26 ar  
    54    25    28 ar  
    55    26    27 ar  
    56    26    63 1   
    57    27    30 ar  
    58    27    64 1   
    59    28    29 ar  
    60    28    65 1   
    61    29    30 ar  
    62    29    66 1   
    63    30    31 1   
    64    31    32 1   
    65    31    35 2   
    66    32    33 1   
    67    33    34 2   
    68    33    67 1   
    69    34    35 1   
    70    35    36 1   
    71    36    68 1   
    72    36    69 1   
    73    36    70 1   
@<TRIPOS>SUBSTRUCTURE
     1 9B8         1 TEMP              0 ****  ****    0 ROOT
