@<TRIPOS>MOLECULE
9B8
   70    73     1     0     0
SMALL
No Charge or Current Charge


@<TRIPOS>ATOM
      1 CAO         -7.5110     2.4180     1.2380 cy         1 9B8       0.162100
      2 OAV         -8.3720     2.5070     2.4340 oq         1 9B8      -0.442000
      3 CAP         -7.6990     1.3200     3.0020 cy         1 9B8       0.162100
      4 CBF         -6.4410     1.8020     2.2000 cy         1 9B8      -0.230700
      5 CAY         -6.1860     0.5350     1.3070 c          1 9B8       0.613100
      6 OAF         -6.7350    -0.5540     1.1940 o          1 9B8      -0.607100
      7 NAU         -5.0630     0.7880     0.5500 ns         1 9B8      -0.490900
      8 CBH         -4.4310    -0.1450    -0.4210 c3         1 9B8       0.045700
      9 CBJ         -4.8170     0.2110    -1.9110 c3         1 9B8      -0.046000
     10 CAD         -4.2500    -0.8380    -2.9060 c3         1 9B8      -0.090100
     11 CAB         -6.3620     0.2220    -2.0790 c3         1 9B8      -0.090100
     12 CAC         -4.2690     1.6110    -2.3070 c3         1 9B8      -0.090100
     13 CAZ         -2.8850    -0.1650    -0.1490 c          1 9B8       0.606100
     14 OAG         -2.3090     0.8250     0.2940 o          1 9B8      -0.617100
     15 N           -2.1410    -1.3280    -0.4530 n          1 9B8      -0.386800
     16 CD2         -2.7160    -2.6960    -0.3740 c5         1 9B8       0.069000
     17 CG          -1.4640    -3.6040    -0.1590 c5         1 9B8       0.154300
     18 OD1         -1.1450    -3.7740     1.2270 oh         1 9B8      -0.653000
     19 CB          -0.3670    -2.7940    -0.8910 c5         1 9B8      -0.083400
     20 CA          -0.6530    -1.3410    -0.4120 c5         1 9B8       0.032700
     21 C            0.0510    -0.3450    -1.3880 c          1 9B8       0.599100
     22 O           -0.4300     0.2130    -2.3670 o          1 9B8      -0.606100
     23 NAT          1.3550    -0.1580    -0.9860 ns         1 9B8      -0.498900
     24 CAN          2.3040     0.7120    -1.6710 c3         1 9B8       0.153300
     25 CBA          3.6690     0.6560    -1.0050 ca         1 9B8      -0.111300
     26 CAI          4.6160    -0.3070    -1.4050 ca         1 9B8      -0.094500
     27 CAK          5.8760    -0.3620    -0.7850 ca         1 9B8      -0.100000
     28 CAJ          3.9980     1.5620     0.0200 ca         1 9B8      -0.094500
     29 CAL          5.2580     1.5050     0.6400 ca         1 9B8      -0.100000
     30 CBC          6.2030     0.5360     0.2480 ca         1 9B8       0.002000
     31 CBD          7.5200     0.4710     0.8760 cc         1 9B8      -0.189000
     32 SAW          9.0270     0.4210     0.0130 ss         1 9B8      -0.029400
     33 CAM          9.8090     0.3130     1.5700 cc         1 9B8       0.416300
     34 NAS          9.0150     0.2790     2.6380 nd         1 9B8      -0.637000
     35 CBB          7.6880     0.3570     2.2420 cd         1 9B8       0.304300
     36 CAA          6.6120     0.2910     3.2940 c3         1 9B8      -0.122400
     37 H1          -7.9700     1.7720     0.4770 h1         1 9B8       0.059950
     38 H2          -7.2680     3.4050     0.8280 h1         1 9B8       0.059950
     39 H3          -7.6100     1.3830     4.0920 h1         1 9B8       0.059950
     40 H4          -8.2230     0.4050     2.7050 h1         1 9B8       0.059950
     41 H5          -5.6320     2.3930     2.6390 hc         1 9B8       0.075700
     42 H6          -4.6030     1.6770     0.7130 hn         1 9B8       0.332500
     43 H7          -4.8020    -1.1540    -0.2120 h1         1 9B8       0.087700
     44 H8          -4.6270    -1.8410    -2.6760 hc         1 9B8       0.040700
     45 H9          -4.5500    -0.6010    -3.9340 hc         1 9B8       0.040700
     46 H10         -3.1540    -0.8630    -2.8900 hc         1 9B8       0.040700
     47 H11         -6.8250     1.0260    -1.4970 hc         1 9B8       0.040700
     48 H12         -6.6430     0.3790    -3.1280 hc         1 9B8       0.040700
     49 H13         -6.7990    -0.7310    -1.7560 hc         1 9B8       0.040700
     50 H14         -3.1740     1.6380    -2.2650 hc         1 9B8       0.040700
     51 H15         -4.5660     1.8700    -3.3300 hc         1 9B8       0.040700
     52 H16         -4.6550     2.3940    -1.6420 hc         1 9B8       0.040700
     53 H17         -3.4360    -2.7990     0.4480 h1         1 9B8       0.062200
     54 H18         -3.2230    -2.9620    -1.3100 h1         1 9B8       0.062200
     55 H19         -1.6060    -4.5880    -0.6290 h1         1 9B8       0.053700
     56 H20         -1.8270    -4.3680     1.6100 ho         1 9B8       0.450000
     57 H21          0.6460    -3.1310    -0.6420 hc         1 9B8       0.071700
     58 H22         -0.4800    -2.8870    -1.9790 hc         1 9B8       0.071700
     59 H23         -0.2940    -1.1670     0.6110 h1         1 9B8       0.080700
     60 H24          1.6690    -0.6590    -0.1640 hn         1 9B8       0.322500
     61 H25          2.3870     0.3960    -2.7200 h1         1 9B8       0.059200
     62 H26          1.9220     1.7410    -1.6560 h1         1 9B8       0.059200
     63 H27          4.3750    -1.0140    -2.1970 ha         1 9B8       0.120500
     64 H28          6.5980    -1.1100    -1.1030 ha         1 9B8       0.121000
     65 H29          3.2780     2.3130     0.3370 ha         1 9B8       0.120500
     66 H30          5.5030     2.2220     1.4190 ha         1 9B8       0.121000
     67 H31         10.8910     0.2680     1.6100 h5         1 9B8       0.053100
     68 H32          6.2810     1.2970     3.5770 hc         1 9B8       0.052700
     69 H33          5.7390    -0.2670     2.9350 hc         1 9B8       0.052700
     70 H34          6.9710    -0.2100     4.2000 hc         1 9B8       0.052700
@<TRIPOS>BOND
     1     1     2 1   
     2     1     4 1   
     3     1    37 1   
     4     1    38 1   
     5     2     3 1   
     6     3     4 1   
     7     3    39 1   
     8     3    40 1   
     9     4     5 1   
    10     4    41 1   
    11     5     6 2   
    12     5     7 1   
    13     7     8 1   
    14     7    42 1   
    15     8     9 1   
    16     8    13 1   
    17     8    43 1   
    18     9    10 1   
    19     9    11 1   
    20     9    12 1   
    21    10    44 1   
    22    10    45 1   
    23    10    46 1   
    24    11    47 1   
    25    11    48 1   
    26    11    49 1   
    27    12    50 1   
    28    12    51 1   
    29    12    52 1   
    30    13    14 2   
    31    13    15 1   
    32    15    16 1   
    33    15    20 1   
    34    16    17 1   
    35    16    53 1   
    36    16    54 1   
    37    17    18 1   
    38    17    19 1   
    39    17    55 1   
    40    18    56 1   
    41    19    20 1   
    42    19    57 1   
    43    19    58 1   
    44    20    21 1   
    45    20    59 1   
    46    21    22 2   
    47    21    23 1   
    48    23    24 1   
    49    23    60 1   
    50    24    25 1   
    51    24    61 1   
    52    24    62 1   
    53    25    26 ar  
    54    25    28 ar  
    55    26    27 ar  
    56    26    63 1   
    57    27    30 ar  
    58    27    64 1   
    59    28    29 ar  
    60    28    65 1   
    61    29    30 ar  
    62    29    66 1   
    63    30    31 1   
    64    31    32 1   
    65    31    35 2   
    66    32    33 1   
    67    33    34 2   
    68    33    67 1   
    69    34    35 1   
    70    35    36 1   
    71    36    68 1   
    72    36    69 1   
    73    36    70 1   
@<TRIPOS>SUBSTRUCTURE
     1 9B8         1 TEMP              0 ****  ****    0 ROOT
