@<TRIPOS>MOLECULE
9BA
   85    86     1     0     0
SMALL
abcg2


@<TRIPOS>ATOM
      1 C15          9.0750    -1.7940     1.4770 c3         1 9BA       0.214100
      2 N4           7.9640    -1.4960     0.6080 nu         1 9BA      -0.900400
      3 C14          6.7220    -2.0050     0.8880 c2         1 9BA       0.799100
      4 N5           6.5720    -2.8660     1.8260 n2         1 9BA      -0.892100
      5 N3           5.7340    -1.4850     0.0820 nu         1 9BA      -0.946400
      6 C13          4.3890    -2.0130     0.1310 c3         1 9BA       0.209800
      7 C12          3.4770    -1.2100    -0.7810 c3         1 9BA      -0.085400
      8 C11          2.0300    -1.6760    -0.6890 c3         1 9BA      -0.089400
      9 C10          1.1190    -0.8870    -1.6270 c3         1 9BA       0.046700
     10 C27         -0.3730    -1.2620    -1.6330 c          1 9BA       0.601100
     11 O3          -1.1480    -0.6220    -2.3290 o          1 9BA      -0.628100
     12 N2           1.1960     0.5440    -1.4230 ns         1 9BA      -0.479900
     13 N7          -0.7550    -2.3120    -0.8950 ns         1 9BA      -0.477900
     14 C24         -2.1380    -2.7380    -0.7990 c3         1 9BA       0.030700
     15 C23         -2.8380    -1.9990     0.3530 c          1 9BA       0.584100
     16 O4          -3.0460    -2.5280     1.4310 o          1 9BA      -0.593100
     17 C25         -2.2260    -4.2490    -0.6370 c3         1 9BA      -0.079400
     18 C26         -1.6180    -4.9940    -1.8160 c3         1 9BA      -0.090100
     19 O1           2.7290     2.0420     0.9730 o          1 9BA      -0.583100
     20 C6           4.7610     4.1420     0.9750 c3         1 9BA      -0.084600
     21 C7           4.9940     2.5790    -0.9970 c3         1 9BA      -0.084600
     22 C9           0.5360     1.1120    -0.4110 c          1 9BA       0.619100
     23 C8          -0.4440     3.0020    -1.6850 c3         1 9BA      -0.109100
     24 N1           1.7160     3.2240    -0.6480 ns         1 9BA      -0.523900
     25 C5           4.0900     3.5790    -0.2730 c3         1 9BA      -0.134700
     26 C4           2.7890     2.8890     0.0930 c          1 9BA       0.590100
     27 C3           0.3960     2.6430    -0.4540 c3         1 9BA       0.063400
     28 C2          -0.2580     3.1870     0.8350 c3         1 9BA      -0.094400
     29 C1          -1.7820     3.1500     0.9320 c3         1 9BA       0.111000
     30 O2          -0.0140     0.4240     0.4420 o          1 9BA      -0.615100
     31 N           -2.3240     1.8070     0.9010 ns         1 9BA      -0.514900
     32 N6          -3.1940    -0.7260     0.0800 ns         1 9BA      -0.495900
     33 C16         -4.0010     0.0600     0.9890 c3         1 9BA       0.075000
     34 C17         -5.4780    -0.1460     0.7600 ca         1 9BA      -0.087300
     35 C18         -6.2900    -0.5890     1.7960 ca         1 9BA      -0.082500
     36 C19         -7.6500    -0.7970     1.5920 ca         1 9BA      -0.114000
     37 C20         -8.2070    -0.5660     0.3430 ca         1 9BA      -0.104000
     38 C21         -7.3990    -0.1260    -0.7000 ca         1 9BA      -0.114000
     39 C22         -6.0450     0.0820    -0.4920 ca         1 9BA      -0.082500
     40 C           -3.6310     1.5520     0.9550 c          1 9BA       0.590100
     41 O           -4.4920     2.4160     1.0250 o          1 9BA      -0.603100
     42 H28          8.9240    -1.4580     2.5070 h1         1 9BA       0.038367
     43 H29          9.2660    -2.8660     1.5040 h1         1 9BA       0.038367
     44 H30          9.9620    -1.3020     1.0830 h1         1 9BA       0.038367
     45 H27          7.9720    -0.5710     0.2080 hn         1 9BA       0.464000
     46 H31          5.6290    -3.2350     1.8470 hn         1 9BA       0.381400
     47 H26          6.0380    -1.1930    -0.8350 hn         1 9BA       0.461000
     48 H25          4.3500    -3.0760    -0.1420 h1         1 9BA       0.042200
     49 H24          4.0190    -1.9360     1.1570 h1         1 9BA       0.042200
     50 H23          3.5470    -0.1580    -0.5030 hc         1 9BA       0.051200
     51 H22          3.8240    -1.2960    -1.8170 hc         1 9BA       0.051200
     52 H21          1.9790    -2.7350    -0.9650 hc         1 9BA       0.062200
     53 H20          1.6850    -1.5920     0.3440 hc         1 9BA       0.062200
     54 H            1.4600    -1.0650    -2.6510 h1         1 9BA       0.069700
     55 H19          1.6330     1.1110    -2.1310 hn         1 9BA       0.328500
     56 H43         -0.1090    -2.7170    -0.2360 hn         1 9BA       0.329500
     57 H2          -2.6260    -2.4560    -1.7340 h1         1 9BA       0.084700
     58 H39         -1.7410    -4.5540     0.2930 hc         1 9BA       0.063200
     59 H38         -3.2790    -4.5190    -0.5370 hc         1 9BA       0.063200
     60 H40         -1.7720    -6.0680    -1.7100 hc         1 9BA       0.035367
     61 H42         -2.0740    -4.6860    -2.7590 hc         1 9BA       0.035367
     62 H41         -0.5440    -4.8240    -1.8950 hc         1 9BA       0.035367
     63 H10          5.6940     4.6390     0.7060 hc         1 9BA       0.044367
     64 H12          4.1270     4.8740     1.4760 hc         1 9BA       0.044367
     65 H11          4.9950     3.3500     1.6860 hc         1 9BA       0.044367
     66 H15          5.9310     3.0590    -1.2770 hc         1 9BA       0.044367
     67 H13          5.2300     1.7230    -0.3640 hc         1 9BA       0.044367
     68 H14          4.5280     2.2050    -1.9100 hc         1 9BA       0.044367
     69 H16          0.0720     2.7450    -2.6090 hc         1 9BA       0.055033
     70 H17         -1.3960     2.4730    -1.6790 hc         1 9BA       0.055033
     71 H18         -0.6500     4.0730    -1.6980 hc         1 9BA       0.055033
     72 H8           1.7980     3.9790    -1.3120 hn         1 9BA       0.318500
     73 H9           3.8800     4.4040    -0.9600 hc         1 9BA       0.046700
     74 H7           0.1870     2.7090     1.7080 hc         1 9BA       0.068200
     75 H6           0.0110     4.2440     0.8940 hc         1 9BA       0.068200
     76 H5          -2.0620     3.6420     1.8670 h1         1 9BA       0.047700
     77 H4          -2.2240     3.7450     0.1300 h1         1 9BA       0.047700
     78 H3          -1.6510     1.0460     0.8740 hn         1 9BA       0.362500
     79 H37         -3.0260    -0.3760    -0.8530 hn         1 9BA       0.333500
     80 H1          -3.7630    -0.2820     2.0010 h1         1 9BA       0.098700
     81 H32         -5.8590    -0.7770     2.7720 ha         1 9BA       0.111500
     82 H33         -8.2700    -1.1430     2.4090 ha         1 9BA       0.110500
     83 H34         -9.2650    -0.7280     0.1800 ha         1 9BA       0.109000
     84 H35         -7.8270     0.0570    -1.6770 ha         1 9BA       0.110500
     85 H36         -5.4310     0.4250    -1.3160 ha         1 9BA       0.111500
@<TRIPOS>BOND
     1     1     2 1   
     2     1    42 1   
     3     1    43 1   
     4     1    44 1   
     5     2     3 1   
     6     2    45 1   
     7     3     4 2   
     8     3     5 1   
     9     4    46 1   
    10     5     6 1   
    11     5    47 1   
    12     6     7 1   
    13     6    48 1   
    14     6    49 1   
    15     7     8 1   
    16     7    50 1   
    17     7    51 1   
    18     8     9 1   
    19     8    52 1   
    20     8    53 1   
    21     9    10 1   
    22     9    12 1   
    23     9    54 1   
    24    10    11 2   
    25    10    13 1   
    26    12    22 1   
    27    12    55 1   
    28    13    14 1   
    29    13    56 1   
    30    14    15 1   
    31    14    17 1   
    32    14    57 1   
    33    15    16 2   
    34    15    32 1   
    35    17    18 1   
    36    17    58 1   
    37    17    59 1   
    38    18    60 1   
    39    18    61 1   
    40    18    62 1   
    41    19    26 2   
    42    20    25 1   
    43    20    63 1   
    44    20    64 1   
    45    20    65 1   
    46    21    25 1   
    47    21    66 1   
    48    21    67 1   
    49    21    68 1   
    50    22    27 1   
    51    22    30 2   
    52    23    27 1   
    53    23    69 1   
    54    23    70 1   
    55    23    71 1   
    56    24    26 1   
    57    24    27 1   
    58    24    72 1   
    59    25    26 1   
    60    25    73 1   
    61    27    28 1   
    62    28    29 1   
    63    28    74 1   
    64    28    75 1   
    65    29    31 1   
    66    29    76 1   
    67    29    77 1   
    68    31    40 1   
    69    31    78 1   
    70    32    33 1   
    71    32    79 1   
    72    33    34 1   
    73    33    40 1   
    74    33    80 1   
    75    34    35 ar  
    76    34    39 ar  
    77    35    36 ar  
    78    35    81 1   
    79    36    37 ar  
    80    36    82 1   
    81    37    38 ar  
    82    37    83 1   
    83    38    39 ar  
    84    38    84 1   
    85    39    85 1   
    86    40    41 2   
@<TRIPOS>SUBSTRUCTURE
     1 9BA         1 TEMP              0 ****  ****    0 ROOT
