@<TRIPOS>MOLECULE
9BA
   85    86     1     0     0
SMALL
No Charge or Current Charge


@<TRIPOS>ATOM
      1 C15          9.1770    -1.2510    -0.3020 c3         1 9BA       0.214100
      2 N4           7.7660    -1.1070    -0.6920 nu         1 9BA      -0.900400
      3 C14          6.7680    -1.8030    -0.1450 c2         1 9BA       0.799100
      4 N5           6.9030    -2.6970     0.7190 n2         1 9BA      -0.892100
      5 N3           5.6020    -1.4690    -0.6940 nu         1 9BA      -0.946400
      6 C13          4.2890    -1.9880    -0.2880 c3         1 9BA       0.209800
      7 C12          3.1690    -1.2940    -1.0850 c3         1 9BA      -0.085400
      8 C11          1.7570    -1.8180    -0.7330 c3         1 9BA      -0.089400
      9 C10          0.6240    -1.1030    -1.5230 c3         1 9BA       0.046700
     10 C27         -0.7640    -1.8210    -1.4410 c          1 9BA       0.601100
     11 O3          -1.5400    -1.8580    -2.3870 o          1 9BA      -0.628100
     12 N2           0.5100     0.3280    -1.1380 ns         1 9BA      -0.479900
     13 N7          -1.0640    -2.4300    -0.2370 ns         1 9BA      -0.477900
     14 C24         -2.2930    -3.2000     0.0590 c3         1 9BA       0.030700
     15 C23         -3.4310    -2.3150     0.6620 c          1 9BA       0.584100
     16 O4          -4.5380    -2.7750     0.9080 o          1 9BA      -0.593100
     17 C25         -1.9640    -4.4120     0.9670 c3         1 9BA      -0.079400
     18 C26         -0.9240    -5.3830     0.3660 c3         1 9BA      -0.090100
     19 O1           2.7330     1.7280     1.1220 o          1 9BA      -0.583100
     20 C6           4.4700     4.2070     0.6490 c3         1 9BA      -0.084600
     21 C7           4.6830     2.3950    -1.1540 c3         1 9BA      -0.084600
     22 C9          -0.0120     0.7940     0.0540 c          1 9BA       0.619100
     23 C8          -1.0820     3.0140    -0.6050 c3         1 9BA      -0.109100
     24 N1           1.3060     2.8920    -0.2290 ns         1 9BA      -0.523900
     25 C5           3.7240     3.3450    -0.3970 c3         1 9BA      -0.134700
     26 C4           2.5600     2.5680     0.2520 c          1 9BA       0.590100
     27 C3           0.0160     2.3550     0.2730 c3         1 9BA       0.063400
     28 C2          -0.1630     2.7480     1.7870 c3         1 9BA      -0.094400
     29 C1          -1.6030     2.7210     2.3800 c3         1 9BA       0.111000
     30 O2          -0.4080     0.0100     0.9060 o          1 9BA      -0.615100
     31 N           -2.3240     1.4720     2.1170 ns         1 9BA      -0.514900
     32 N6          -3.1460    -0.9800     0.8990 ns         1 9BA      -0.495900
     33 C16         -4.1910     0.0310     1.2210 c3         1 9BA       0.075000
     34 C17         -5.0650     0.2830    -0.0100 ca         1 9BA      -0.087300
     35 C18         -6.4670     0.1750     0.0800 ca         1 9BA      -0.082500
     36 C19         -7.2710     0.4060    -1.0500 ca         1 9BA      -0.114000
     37 C20         -6.6800     0.7460    -2.2780 ca         1 9BA      -0.104000
     38 C21         -5.2830     0.8540    -2.3760 ca         1 9BA      -0.114000
     39 C22         -4.4780     0.6230    -1.2470 ca         1 9BA      -0.082500
     40 C           -3.6640     1.3880     1.8030 c          1 9BA       0.590100
     41 O           -4.4000     2.3550     1.9520 o          1 9BA      -0.603100
     42 H28          9.3100    -1.0120     0.7620 h1         1 9BA       0.038367
     43 H29          9.5230    -2.2790    -0.4750 h1         1 9BA       0.038367
     44 H30          9.8070    -0.5720    -0.8910 h1         1 9BA       0.038367
     45 H27          7.4770    -0.1900    -1.0060 hn         1 9BA       0.464000
     46 H31          5.9580    -3.0470     0.8970 hn         1 9BA       0.381400
     47 H26          5.6900    -1.1500    -1.6510 hn         1 9BA       0.461000
     48 H25          4.2420    -3.0720    -0.4640 h1         1 9BA       0.042200
     49 H24          4.1290    -1.8080     0.7850 h1         1 9BA       0.042200
     50 H23          3.2140    -0.2170    -0.8890 hc         1 9BA       0.051200
     51 H22          3.3470    -1.4350    -2.1580 hc         1 9BA       0.051200
     52 H21          1.7200    -2.8930    -0.9560 hc         1 9BA       0.062200
     53 H20          1.5930    -1.7120     0.3460 hc         1 9BA       0.062200
     54 H            0.8980    -1.1320    -2.5850 h1         1 9BA       0.069700
     55 H19          0.8520     1.0330    -1.7800 hn         1 9BA       0.328500
     56 H43         -0.3920    -2.2890     0.5090 hn         1 9BA       0.329500
     57 H2          -2.6900    -3.5870    -0.8890 h1         1 9BA       0.084700
     58 H39         -1.6020    -4.0520     1.9390 hc         1 9BA       0.063200
     59 H38         -2.8860    -4.9720     1.1640 hc         1 9BA       0.063200
     60 H40         -0.7820    -6.2460     1.0280 hc         1 9BA       0.035367
     61 H42         -1.2590    -5.7530    -0.6110 hc         1 9BA       0.035367
     62 H41          0.0490    -4.8930     0.2360 hc         1 9BA       0.035367
     63 H10          5.2550     4.8050     0.1710 hc         1 9BA       0.044367
     64 H12          3.7750     4.8940     1.1480 hc         1 9BA       0.044367
     65 H11          4.9370     3.5760     1.4150 hc         1 9BA       0.044367
     66 H15          5.4870     2.9600    -1.6400 hc         1 9BA       0.044367
     67 H13          5.1390     1.6700    -0.4680 hc         1 9BA       0.044367
     68 H14          4.1430     1.8400    -1.9300 hc         1 9BA       0.044367
     69 H16         -0.8950     2.8340    -1.6710 hc         1 9BA       0.055033
     70 H17         -2.0760     2.6130    -0.3790 hc         1 9BA       0.055033
     71 H18         -1.1100     4.1000    -0.4460 hc         1 9BA       0.055033
     72 H8           1.2780     3.6160    -0.9390 hn         1 9BA       0.318500
     73 H9           3.3010     4.0330    -1.1390 hc         1 9BA       0.046700
     74 H7           0.4700     2.1000     2.4040 hc         1 9BA       0.068200
     75 H6           0.2220     3.7650     1.9330 hc         1 9BA       0.068200
     76 H5          -1.5500     2.8730     3.4660 h1         1 9BA       0.047700
     77 H4          -2.1700     3.5610     1.9570 h1         1 9BA       0.047700
     78 H3          -1.7660     0.6310     1.9950 hn         1 9BA       0.362500
     79 H37         -2.2040    -0.6790     0.6660 hn         1 9BA       0.333500
     80 H1          -4.8160    -0.3910     2.0190 h1         1 9BA       0.098700
     81 H32         -6.9370    -0.0880     1.0250 ha         1 9BA       0.111500
     82 H33         -8.3530     0.3220    -0.9730 ha         1 9BA       0.110500
     83 H34         -7.3020     0.9250    -3.1520 ha         1 9BA       0.109000
     84 H35         -4.8230     1.1150    -3.3260 ha         1 9BA       0.110500
     85 H36         -3.3970     0.7050    -1.3380 ha         1 9BA       0.111500
@<TRIPOS>BOND
     1     1     2 1   
     2     1    42 1   
     3     1    43 1   
     4     1    44 1   
     5     2     3 1   
     6     2    45 1   
     7     3     4 2   
     8     3     5 1   
     9     4    46 1   
    10     5     6 1   
    11     5    47 1   
    12     6     7 1   
    13     6    48 1   
    14     6    49 1   
    15     7     8 1   
    16     7    50 1   
    17     7    51 1   
    18     8     9 1   
    19     8    52 1   
    20     8    53 1   
    21     9    10 1   
    22     9    12 1   
    23     9    54 1   
    24    10    11 2   
    25    10    13 1   
    26    12    22 1   
    27    12    55 1   
    28    13    14 1   
    29    13    56 1   
    30    14    15 1   
    31    14    17 1   
    32    14    57 1   
    33    15    16 2   
    34    15    32 1   
    35    17    18 1   
    36    17    58 1   
    37    17    59 1   
    38    18    60 1   
    39    18    61 1   
    40    18    62 1   
    41    19    26 2   
    42    20    25 1   
    43    20    63 1   
    44    20    64 1   
    45    20    65 1   
    46    21    25 1   
    47    21    66 1   
    48    21    67 1   
    49    21    68 1   
    50    22    27 1   
    51    22    30 2   
    52    23    27 1   
    53    23    69 1   
    54    23    70 1   
    55    23    71 1   
    56    24    26 1   
    57    24    27 1   
    58    24    72 1   
    59    25    26 1   
    60    25    73 1   
    61    27    28 1   
    62    28    29 1   
    63    28    74 1   
    64    28    75 1   
    65    29    31 1   
    66    29    76 1   
    67    29    77 1   
    68    31    40 1   
    69    31    78 1   
    70    32    33 1   
    71    32    79 1   
    72    33    34 1   
    73    33    40 1   
    74    33    80 1   
    75    34    35 ar  
    76    34    39 ar  
    77    35    36 ar  
    78    35    81 1   
    79    36    37 ar  
    80    36    82 1   
    81    37    38 ar  
    82    37    83 1   
    83    38    39 ar  
    84    38    84 1   
    85    39    85 1   
    86    40    41 2   
@<TRIPOS>SUBSTRUCTURE
     1 9BA         1 TEMP              0 ****  ****    0 ROOT
