@<TRIPOS>MOLECULE
9BB
   32    32     1     0     0
SMALL
bcc


@<TRIPOS>ATOM
      1 N            3.9900     1.0080     0.8100 nv         1 9BB      -0.858600
      2 O8           1.2370     1.1380     0.7690 o          1 9BB      -0.592000
      3 O9          -6.1270    -0.7570     0.1130 o          1 9BB      -0.838800
      4 CA           3.8000    -0.1420     0.1270 c2         1 9BB       0.368600
      5 CB           4.7950    -0.9100    -0.3940 c2         1 9BB      -0.306400
      6 SG           6.4840    -0.4920    -0.1840 sh         1 9BB      -0.366400
      7 O10         -5.7060     1.3190    -0.5610 o          1 9BB      -0.838800
      8 O11          0.3080    -0.7780     0.0350 os         1 9BB      -0.439900
      9 N13          2.4960    -0.6130    -0.0060 ns         1 9BB      -0.502100
     10 C48          1.3300     0.0200     0.3070 c          1 9BB       0.773100
     11 C49         -1.0330    -0.2980     0.2620 c6         1 9BB       0.170100
     12 C50         -1.5140     0.5460    -0.9060 c6         1 9BB      -0.092900
     13 C51         -2.9660     0.9680    -0.6930 c6         1 9BB      -0.051900
     14 C52         -3.8840    -0.2310    -0.4810 c6         1 9BB      -0.195700
     15 C53         -3.3650    -1.0960     0.6670 c6         1 9BB      -0.051900
     16 C54         -1.9130    -1.5190     0.4560 c6         1 9BB      -0.092900
     17 C55         -5.3680     0.1500    -0.2870 c          1 9BB       0.931600
     18 HN           3.2170     1.6410     0.9290 hn         1 9BB       0.447300
     19 H2           4.9080     1.4150     0.7450 hn         1 9BB       0.447300
     20 HB           4.5510    -1.8450    -0.8810 h4         1 9BB       0.144000
     21 HSG          6.7380     0.1550    -1.3350 hs         1 9BB       0.169800
     22 HN13         2.4110    -1.5230    -0.4350 hn         1 9BB       0.344500
     23 H49         -1.0450     0.3020     1.1780 h1         1 9BB       0.064700
     24 H50         -0.8800     1.4270    -1.0250 hc         1 9BB       0.035450
     25 H50A        -1.4320    -0.0420    -1.8270 hc         1 9BB       0.035450
     26 H51         -3.0280     1.6320     0.1760 hc         1 9BB       0.049450
     27 H51A        -3.3000     1.5540    -1.5500 hc         1 9BB       0.049450
     28 H52         -3.8420    -0.8490    -1.3930 hc         1 9BB       0.027700
     29 H53         -3.4430    -0.5380     1.6080 hc         1 9BB       0.049450
     30 H53A        -3.9890    -1.9820     0.7800 hc         1 9BB       0.049450
     31 H54         -1.8420    -2.1610    -0.4280 hc         1 9BB       0.035450
     32 H54A        -1.5610    -2.1010     1.3110 hc         1 9BB       0.035450
@<TRIPOS>BOND
     1     1     4 1   
     2     1    18 1   
     3     1    19 1   
     4     2    10 2   
     5     3    17 1   
     6     4     5 2   
     7     4     9 1   
     8     5     6 1   
     9     5    20 1   
    10     6    21 1   
    11     7    17 1   
    12     8    10 1   
    13     8    11 1   
    14     9    10 1   
    15     9    22 1   
    16    11    12 1   
    17    11    16 1   
    18    11    23 1   
    19    12    13 1   
    20    12    24 1   
    21    12    25 1   
    22    13    14 1   
    23    13    26 1   
    24    13    27 1   
    25    14    15 1   
    26    14    17 1   
    27    14    28 1   
    28    15    16 1   
    29    15    29 1   
    30    15    30 1   
    31    16    31 1   
    32    16    32 1   
@<TRIPOS>SUBSTRUCTURE
     1 9BB         1 TEMP              0 ****  ****    0 ROOT
