@<TRIPOS>MOLECULE
9BC
   47    49     1     0     0
SMALL
bcc


@<TRIPOS>ATOM
      1 C1          -6.5670    -2.6750    28.8120 c6         1 9BC      -0.034200
      2 C2          -7.0630    -3.2040    27.4770 c6         1 9BC       0.180800
      3 C4          -5.8450    -1.5780    26.2120 c6         1 9BC       0.210000
      4 C5          -5.0200    -1.3020    27.4370 ce         1 9BC      -0.176400
      5 C6          -5.3820    -1.7860    28.6250 c2         1 9BC      -0.198200
      6 C7          -3.7570    -0.4700    27.2620 c          1 9BC       0.922800
      7 C11         -9.3890    -2.6160    25.5570 c3         1 9BC       0.141400
      8 C14        -10.0560    -0.3770    28.0510 ce         1 9BC       0.460500
      9 C15        -10.1880     0.9100    27.3250 ca         1 9BC      -0.128900
     10 C16         -9.1520     1.3700    26.5140 ca         1 9BC      -0.096750
     11 C17         -9.2700     2.5850    25.8560 ca         1 9BC      -0.140000
     12 C18        -10.4270     3.3430    25.9890 ca         1 9BC      -0.127500
     13 C19        -11.4630     2.8850    26.7920 ca         1 9BC      -0.140000
     14 C20        -11.3410     1.6760    27.4640 ca         1 9BC      -0.096750
     15 C21        -10.0550    -0.3780    29.5280 ca         1 9BC      -0.128900
     16 C22        -10.3520    -1.5390    30.2470 ca         1 9BC      -0.096750
     17 C23        -10.3110    -1.5410    31.6310 ca         1 9BC      -0.140000
     18 C24         -9.9750    -0.3830    32.3250 ca         1 9BC      -0.127500
     19 C25         -9.6830     0.7750    31.6210 ca         1 9BC      -0.140000
     20 C26         -9.7260     0.7800    30.2330 ca         1 9BC      -0.096750
     21 N3          -7.1560    -2.1120    26.5310 n3         1 9BC      -0.730600
     22 N13         -9.9070    -1.5090    27.4830 n2         1 9BC      -0.395200
     23 O08         -3.0920    -0.2070    28.2830 o          1 9BC      -0.834300
     24 O9          -3.4910    -0.1270    26.0910 o          1 9BC      -0.834300
     25 O12         -9.9910    -1.4670    26.1300 os         1 9BC      -0.178300
     26 H1          -7.3730    -2.1310    29.3170 hc         1 9BC       0.029700
     27 H2          -6.3090    -3.5090    29.4710 hc         1 9BC       0.029700
     28 H3          -8.0410    -3.6640    27.6100 h1         1 9BC       0.012200
     29 H4          -6.3860    -3.9980    27.1130 h1         1 9BC       0.012200
     30 H5          -5.2820    -2.2540    25.5410 h1         1 9BC       0.042200
     31 H6          -5.9780    -0.6490    25.6520 h1         1 9BC       0.042200
     32 H8          -4.7840    -1.5460    29.4970 ha         1 9BC       0.138000
     33 H10         -7.5220    -3.3390    24.8280 h1         1 9BC       0.028200
     34 H11         -7.7570    -1.6100    24.6250 h1         1 9BC       0.028200
     35 H12         -9.8710    -2.7590    24.5880 h1         1 9BC       0.042700
     36 H13         -9.6130    -3.4950    26.1680 h1         1 9BC       0.042700
     37 H14         -8.2480     0.7830    26.4110 ha         1 9BC       0.145500
     38 H15         -8.4570     2.9410    25.2360 ha         1 9BC       0.126250
     39 H16        -10.5190     4.2880    25.4710 ha         1 9BC       0.120500
     40 H17        -12.3660     3.4720    26.9000 ha         1 9BC       0.126250
     41 H18        -12.1460     1.3290    28.0990 ha         1 9BC       0.145500
     42 H19        -10.6270    -2.4420    29.7180 ha         1 9BC       0.145500
     43 H20        -10.5490    -2.4470    32.1730 ha         1 9BC       0.126250
     44 H21         -9.9470    -0.3860    33.4070 ha         1 9BC       0.120500
     45 H22         -9.4190     1.6820    32.1510 ha         1 9BC       0.126250
     46 H23         -9.4880     1.6910    29.7000 ha         1 9BC       0.145500
     47 C10         -7.8970    -2.4310    25.3340 c3         1 9BC       0.148800
@<TRIPOS>BOND
     1     1     2 1   
     2     1     5 1   
     3     1    26 1   
     4     1    27 1   
     5     2    21 1   
     6     2    28 1   
     7     2    29 1   
     8     3     4 1   
     9     3    21 1   
    10     3    30 1   
    11     3    31 1   
    12     4     5 2   
    13     4     6 1   
    14     5    32 1   
    15     6    23 1   
    16     6    24 1   
    17     7    25 1   
    18     7    35 1   
    19     7    36 1   
    20     7    47 1   
    21     8     9 1   
    22     8    15 1   
    23     8    22 2   
    24     9    10 ar  
    25     9    14 ar  
    26    10    11 ar  
    27    10    37 1   
    28    11    12 ar  
    29    11    38 1   
    30    12    13 ar  
    31    12    39 1   
    32    13    14 ar  
    33    13    40 1   
    34    14    41 1   
    35    15    16 ar  
    36    15    20 ar  
    37    16    17 ar  
    38    16    42 1   
    39    17    18 ar  
    40    17    43 1   
    41    18    19 ar  
    42    18    44 1   
    43    19    20 ar  
    44    19    45 1   
    45    20    46 1   
    46    21    47 1   
    47    22    25 1   
    48    33    47 1   
    49    34    47 1   
@<TRIPOS>SUBSTRUCTURE
     1 9BC         1 TEMP              0 ****  ****    0 ROOT
