@<TRIPOS>MOLECULE
9BC
   47    49     1     0     0
SMALL
No Charge or Current Charge


@<TRIPOS>ATOM
      1 C1          -5.6570    -2.5150    28.5210 c6         1 9BC      -0.034200
      2 C2          -6.5750    -3.1290    27.4340 c6         1 9BC       0.180800
      3 C4          -5.7210    -1.6160    25.7010 c6         1 9BC       0.210000
      4 C5          -4.5370    -1.2740    26.6260 ce         1 9BC      -0.176400
      5 C6          -4.5290    -1.6880    27.9230 c2         1 9BC      -0.248200
      6 C7          -3.4470    -0.4160    26.0270 c          1 9BC       0.712200
      7 C11         -9.4080    -2.8920    26.0560 c3         1 9BC       0.164600
      8 C14        -10.1050    -0.3580    28.4360 ce         1 9BC       0.460500
      9 C15         -9.9720     0.9350    27.6760 ca         1 9BC      -0.128900
     10 C16         -8.8710     1.1610    26.8190 ca         1 9BC      -0.078750
     11 C17         -8.7720     2.3520    26.0800 ca         1 9BC      -0.122000
     12 C18         -9.7800     3.3250    26.1730 ca         1 9BC      -0.109500
     13 C19        -10.8920     3.1010    27.0010 ca         1 9BC      -0.122000
     14 C20        -10.9920     1.9100    27.7410 ca         1 9BC      -0.078750
     15 C21        -10.6420    -0.3310    29.8400 ca         1 9BC      -0.128900
     16 C22        -11.2560    -1.4770    30.3960 ca         1 9BC      -0.078750
     17 C23        -11.7180    -1.4700    31.7240 ca         1 9BC      -0.122000
     18 C24        -11.5550    -0.3270    32.5210 ca         1 9BC      -0.109500
     19 C25        -10.9200     0.8070    31.9920 ca         1 9BC      -0.122000
     20 C26        -10.4570     0.8040    30.6650 ca         1 9BC      -0.078750
     21 N3          -6.9360    -2.1110    26.4130 n3         1 9BC      -0.730600
     22 N13         -9.6820    -1.4820    27.9350 n2         1 9BC      -0.296700
     23 O08         -2.5060    -0.0850    26.7350 o          1 9BC      -0.729000
     24 O9          -3.5240    -0.0930    24.8500 o          1 9BC      -0.729000
     25 O12        -10.0440    -1.7030    26.5820 os         1 9BC      -0.300000
     26 H1          -6.2570    -1.8740    29.1810 hc         1 9BC       0.029700
     27 H2          -5.2460    -3.3140    29.1520 hc         1 9BC       0.029700
     28 H3          -7.4690    -3.5340    27.9280 h1         1 9BC       0.012200
     29 H4          -6.0570    -3.9730    26.9550 h1         1 9BC       0.012200
     30 H5          -5.3770    -2.3760    24.9830 h1         1 9BC       0.042200
     31 H6          -5.9890    -0.7260    25.1120 h1         1 9BC       0.042200
     32 H8          -3.7080    -1.4330    28.5940 ha         1 9BC       0.188000
     33 H10         -7.6520    -3.4330    24.9180 h1         1 9BC       0.028200
     34 H11         -8.1560    -1.7620    24.7130 h1         1 9BC       0.028200
     35 H12        -10.0170    -3.2880    25.2340 h1         1 9BC       0.042700
     36 H13         -9.3370    -3.6850    26.8110 h1         1 9BC       0.042700
     37 H14         -8.0830     0.4160    26.7340 ha         1 9BC       0.127500
     38 H15         -7.9140     2.5190    25.4320 ha         1 9BC       0.108250
     39 H16         -9.7030     4.2460    25.6000 ha         1 9BC       0.102500
     40 H17        -11.6800     3.8480    27.0650 ha         1 9BC       0.108250
     41 H18        -11.8700     1.7440    28.3630 ha         1 9BC       0.127500
     42 H19        -11.3890    -2.3750    29.7960 ha         1 9BC       0.127500
     43 H20        -12.2000    -2.3540    32.1350 ha         1 9BC       0.108250
     44 H21        -11.9110    -0.3230    33.5490 ha         1 9BC       0.102500
     45 H22        -10.7780     1.6890    32.6130 ha         1 9BC       0.108250
     46 H23         -9.9460     1.6860    30.2850 ha         1 9BC       0.127500
     47 C10         -8.0030    -2.5470    25.4660 c3         1 9BC       0.148800
@<TRIPOS>BOND
     1     1     2 1   
     2     1     5 1   
     3     1    26 1   
     4     1    27 1   
     5     2    21 1   
     6     2    28 1   
     7     2    29 1   
     8     3     4 1   
     9     3    21 1   
    10     3    30 1   
    11     3    31 1   
    12     4     5 2   
    13     4     6 1   
    14     5    32 1   
    15     6    23 1   
    16     6    24 1   
    17     7    25 1   
    18     7    35 1   
    19     7    36 1   
    20     7    47 1   
    21     8     9 1   
    22     8    15 1   
    23     8    22 2   
    24     9    10 ar  
    25     9    14 ar  
    26    10    11 ar  
    27    10    37 1   
    28    11    12 ar  
    29    11    38 1   
    30    12    13 ar  
    31    12    39 1   
    32    13    14 ar  
    33    13    40 1   
    34    14    41 1   
    35    15    16 ar  
    36    15    20 ar  
    37    16    17 ar  
    38    16    42 1   
    39    17    18 ar  
    40    17    43 1   
    41    18    19 ar  
    42    18    44 1   
    43    19    20 ar  
    44    19    45 1   
    45    20    46 1   
    46    21    47 1   
    47    22    25 1   
    48    33    47 1   
    49    34    47 1   
@<TRIPOS>SUBSTRUCTURE
     1 9BC         1 TEMP              0 ****  ****    0 ROOT
