@<TRIPOS>MOLECULE
9BD
   46    49     1     0     0
SMALL
abcg2


@<TRIPOS>ATOM
      1 C1           8.0250    -1.0280    -0.8460 c3         1 9BD       0.144900
      2 C2           6.4620     0.2230     0.3560 c3         1 9BD       0.158600
      3 C6           0.9190     1.5210     0.1170 ca         1 9BD       0.290000
      4 C9           1.9590    -1.0780     0.1810 ca         1 9BD       0.124100
      5 C12         -2.3280    -0.3510    -0.0210 ca         1 9BD      -0.246000
      6 C15         -1.7780     2.0070     0.0100 ca         1 9BD      -0.230000
      7 C18         -6.6110    -1.8950    -0.2900 cc         1 9BD       0.218900
      8 O1           6.7320    -0.4780    -0.8280 os         1 9BD      -0.440000
      9 C3           5.0780     0.8110     0.2890 c3         1 9BD       0.157600
     10 O2           4.1380    -0.2520     0.2670 os         1 9BD      -0.309100
     11 C4           2.8370     0.0480     0.2090 ca         1 9BD       0.150100
     12 C5           2.3120     1.3140     0.1770 ca         1 9BD      -0.176000
     13 C7           0.0520     0.4160     0.0880 ca         1 9BD      -0.075000
     14 C8           0.6030    -0.8830     0.1210 ca         1 9BD      -0.163000
     15 C10          1.7680    -3.4340     0.1740 c3         1 9BD       0.142900
     16 C11         -1.3600     0.6650     0.0280 ca         1 9BD       0.097000
     17 C13         -3.6460     0.0340    -0.0580 ca         1 9BD       0.526500
     18 N1          -4.0730     1.2920    -0.0740 nb         1 9BD      -0.808000
     19 C14         -3.1850     2.2710    -0.0520 ca         1 9BD       0.692900
     20 C16         -0.7950     3.0290     0.0420 ca         1 9BD       0.389900
     21 N2           0.4810     2.8140     0.0910 nb         1 9BD      -0.668000
     22 N3          -3.6700     3.5210    -0.1090 nv         1 9BD      -1.073900
     23 N4          -4.6730    -0.9250    -0.0810 na         1 9BD      -0.189000
     24 C17         -5.9900    -0.6910    -0.4040 cd         1 9BD      -0.185000
     25 N5          -5.7180    -2.8590     0.1020 nc         1 9BD      -0.664000
     26 C19         -4.5740    -2.2510     0.2160 cd         1 9BD       0.402400
     27 H1           8.8000    -0.2600    -0.7450 h1         1 9BD       0.029700
     28 H1A          8.1730    -1.7610    -0.0440 h1         1 9BD       0.029700
     29 H1B          8.1620    -1.5330    -1.8010 h1         1 9BD       0.029700
     30 H2           6.5500    -0.4290     1.2370 h1         1 9BD       0.033700
     31 H2A          7.1690     1.0510     0.5010 h1         1 9BD       0.033700
     32 H12         -2.0470    -1.3920    -0.0490 ha         1 9BD       0.134000
     33 H18         -7.6510    -2.1200    -0.4660 h4         1 9BD       0.039100
     34 H3           4.9220     1.4490     1.1650 h1         1 9BD       0.047200
     35 H3A          4.9720     1.4370    -0.6040 h1         1 9BD       0.047200
     36 H5           2.9440     2.1910     0.1970 ha         1 9BD       0.138000
     37 H8          -0.0580    -1.7380     0.1030 ha         1 9BD       0.123000
     38 H10          2.4500    -4.2790     0.2000 h1         1 9BD       0.043033
     39 H10A         1.0960    -3.4960     1.0330 h1         1 9BD       0.043033
     40 H10B         1.1770    -3.4840    -0.7440 h1         1 9BD       0.043033
     41 H16         -1.0930     4.0720     0.0220 h4         1 9BD       0.007100
     42 HN3         -3.1030     4.3300     0.0680 hn         1 9BD       0.498000
     43 HN3A        -4.6660     3.6480    -0.0470 hn         1 9BD       0.498000
     44 H17         -6.3480     0.2840    -0.6830 h4         1 9BD       0.173000
     45 H19         -3.6490    -2.7110     0.5280 h5         1 9BD       0.055100
     46 O3           2.5700    -2.2690     0.2170 os         1 9BD      -0.313100
@<TRIPOS>BOND
     1     1     8 1   
     2     1    27 1   
     3     1    28 1   
     4     1    29 1   
     5     2     8 1   
     6     2     9 1   
     7     2    30 1   
     8     2    31 1   
     9     3    12 ar  
    10     3    13 ar  
    11     3    21 ar  
    12     4    11 ar  
    13     4    14 ar  
    14     4    46 1   
    15     5    16 ar  
    16     5    17 ar  
    17     5    32 1   
    18     6    16 ar  
    19     6    19 ar  
    20     6    20 ar  
    21     7    24 2   
    22     7    25 1   
    23     7    33 1   
    24     9    10 1   
    25     9    34 1   
    26     9    35 1   
    27    10    11 1   
    28    11    12 ar  
    29    12    36 1   
    30    13    14 ar  
    31    13    16 ar  
    32    14    37 1   
    33    15    38 1   
    34    15    39 1   
    35    15    40 1   
    36    15    46 1   
    37    17    18 ar  
    38    17    23 1   
    39    18    19 ar  
    40    19    22 1   
    41    20    21 ar  
    42    20    41 1   
    43    22    42 1   
    44    22    43 1   
    45    23    24 1   
    46    23    26 1   
    47    24    44 1   
    48    25    26 2   
    49    26    45 1   
@<TRIPOS>SUBSTRUCTURE
     1 9BD         1 TEMP              0 ****  ****    0 ROOT
