@<TRIPOS>MOLECULE
9BD
   46    49     1     0     0
SMALL
No Charge or Current Charge


@<TRIPOS>ATOM
      1 C1           8.1310    -0.8970    -1.2720 c3         1 9BD       0.144900
      2 C2           6.5830     0.2380     0.2040 c3         1 9BD       0.158600
      3 C6           0.9030     1.4980     0.2710 ca         1 9BD       0.290000
      4 C9           1.9710    -1.1250     0.1500 ca         1 9BD       0.124100
      5 C12         -2.3700    -0.3700     0.1900 ca         1 9BD      -0.246000
      6 C15         -1.8150     1.9550     0.3020 ca         1 9BD      -0.230000
      7 C18         -6.2170    -1.9530    -1.0310 cc         1 9BD       0.218900
      8 O1           6.8370    -0.2920    -1.1130 os         1 9BD      -0.440000
      9 C3           5.1620     0.8450     0.2350 c3         1 9BD       0.157600
     10 O2           4.2010    -0.2290     0.1850 os         1 9BD      -0.309100
     11 C4           2.8330    -0.0090     0.1980 ca         1 9BD       0.150100
     12 C5           2.2900     1.2900     0.2580 ca         1 9BD      -0.176000
     13 C7           0.0260     0.3790     0.2230 ca         1 9BD      -0.075000
     14 C8           0.5720    -0.9280     0.1630 ca         1 9BD      -0.163000
     15 C10          1.7430    -3.5920     0.0390 c3         1 9BD       0.142900
     16 C11         -1.3730     0.6270     0.2380 ca         1 9BD       0.097000
     17 C13         -3.7350    -0.0220     0.2070 ca         1 9BD       0.526500
     18 N1          -4.1230     1.2700     0.2730 nb         1 9BD      -0.808000
     19 C14         -3.1860     2.1950     0.3140 ca         1 9BD       0.692900
     20 C16         -0.8780     2.9910     0.3410 ca         1 9BD       0.389900
     21 N2           0.4510     2.7690     0.3280 nb         1 9BD      -0.668000
     22 N3          -3.7760     3.3840     0.3880 nv         1 9BD      -1.073900
     23 N4          -4.6300    -1.0870     0.1490 na         1 9BD      -0.189000
     24 C17         -4.8920    -1.6100    -1.1040 cd         1 9BD      -0.185000
     25 N5          -6.7840    -1.5350     0.1500 nc         1 9BD      -0.664000
     26 C19         -5.8170    -0.9210     0.8290 cd         1 9BD       0.402400
     27 H1           8.9290    -0.1670    -1.0810 h1         1 9BD       0.029700
     28 H1A          8.2560    -1.7390    -0.5780 h1         1 9BD       0.029700
     29 H1B          8.2520    -1.2760    -2.2950 h1         1 9BD       0.029700
     30 H2           6.6630    -0.5460     0.9680 h1         1 9BD       0.033700
     31 H2A          7.3090     1.0250     0.4440 h1         1 9BD       0.033700
     32 H12         -2.1210    -1.4230     0.1390 ha         1 9BD       0.134000
     33 H18         -6.8230    -2.4400    -1.7840 h4         1 9BD       0.039100
     34 H3           5.0440     1.4200     1.1620 h1         1 9BD       0.047200
     35 H3A          5.0380     1.5270    -0.6160 h1         1 9BD       0.047200
     36 H5           2.9340     2.1620     0.2960 ha         1 9BD       0.138000
     37 H8          -0.0800    -1.7900     0.1260 ha         1 9BD       0.123000
     38 H10          2.3950    -4.4730    -0.0020 h1         1 9BD       0.043033
     39 H10A         1.1070    -3.6820     0.9290 h1         1 9BD       0.043033
     40 H10B         1.1050    -3.6010    -0.8540 h1         1 9BD       0.043033
     41 H16         -1.1830     4.0350     0.3860 h4         1 9BD       0.007100
     42 HN3         -3.2940     4.1040     0.9130 hn         1 9BD       0.498000
     43 HN3A        -4.7710     3.3140     0.5600 hn         1 9BD       0.498000
     44 H17         -4.1650    -1.7110    -1.9020 h4         1 9BD       0.173000
     45 H19         -5.8980    -0.3910     1.7720 h5         1 9BD       0.055100
     46 O3           2.5320    -2.3910     0.0930 os         1 9BD      -0.313100
@<TRIPOS>BOND
     1     1     8 1   
     2     1    27 1   
     3     1    28 1   
     4     1    29 1   
     5     2     8 1   
     6     2     9 1   
     7     2    30 1   
     8     2    31 1   
     9     3    12 ar  
    10     3    13 ar  
    11     3    21 ar  
    12     4    11 ar  
    13     4    14 ar  
    14     4    46 1   
    15     5    16 ar  
    16     5    17 ar  
    17     5    32 1   
    18     6    16 ar  
    19     6    19 ar  
    20     6    20 ar  
    21     7    24 2   
    22     7    25 1   
    23     7    33 1   
    24     9    10 1   
    25     9    34 1   
    26     9    35 1   
    27    10    11 1   
    28    11    12 ar  
    29    12    36 1   
    30    13    14 ar  
    31    13    16 ar  
    32    14    37 1   
    33    15    38 1   
    34    15    39 1   
    35    15    40 1   
    36    15    46 1   
    37    17    18 ar  
    38    17    23 1   
    39    18    19 ar  
    40    19    22 1   
    41    20    21 ar  
    42    20    41 1   
    43    22    42 1   
    44    22    43 1   
    45    23    24 1   
    46    23    26 1   
    47    24    44 1   
    48    25    26 2   
    49    26    45 1   
@<TRIPOS>SUBSTRUCTURE
     1 9BD         1 TEMP              0 ****  ****    0 ROOT
