@<TRIPOS>MOLECULE
9BE
   19    19     1     0     0
SMALL
abcg2


@<TRIPOS>ATOM
      1 S01         -3.7100     0.0420     0.3360 s          1 9BE      -0.573400
      2 C02         -2.6030     0.0140    -0.8930 cs         1 9BE       0.360200
      3 N03         -1.2950    -0.0080    -0.7550 ns         1 9BE      -0.392900
      4 C04         -0.6100    -0.0110     0.5270 c3         1 9BE       0.130300
      5 C05          0.8770    -0.0130     0.3150 ca         1 9BE      -0.126300
      6 C06          1.5710    -1.2150     0.1960 ca         1 9BE      -0.092000
      7 C07          2.9390    -1.2180    -0.0400 ca         1 9BE      -0.112000
      8 C08          3.6270    -0.0170    -0.1570 ca         1 9BE      -0.095000
      9 C09          2.9420     1.1860    -0.0370 ca         1 9BE      -0.112000
     10 C10          1.5740     1.1860     0.1980 ca         1 9BE      -0.092000
     11 H2          -2.9170     0.0130    -1.9350 h5         1 9BE       0.042200
     12 H3          -0.9250     0.8650     1.0970 h1         1 9BE       0.078200
     13 H4          -0.9280    -0.8880     1.0960 h1         1 9BE       0.078200
     14 H5           1.0380    -2.1540     0.2920 ha         1 9BE       0.118000
     15 H6           3.4690    -2.1570    -0.1300 ha         1 9BE       0.118000
     16 H7           4.6940    -0.0180    -0.3370 ha         1 9BE       0.117000
     17 H8           3.4740     2.1240    -0.1260 ha         1 9BE       0.118000
     18 H9           1.0440     2.1260     0.2960 ha         1 9BE       0.118000
     19 H1          -0.7300    -0.0260    -1.5910 hn         1 9BE       0.317500
@<TRIPOS>BOND
     1     1     2 2   
     2     2     3 1   
     3     2    11 1   
     4     3     4 1   
     5     3    19 1   
     6     4     5 1   
     7     4    12 1   
     8     4    13 1   
     9     5     6 ar  
    10     5    10 ar  
    11     6     7 ar  
    12     6    14 1   
    13     7     8 ar  
    14     7    15 1   
    15     8     9 ar  
    16     8    16 1   
    17     9    10 ar  
    18     9    17 1   
    19    10    18 1   
@<TRIPOS>SUBSTRUCTURE
     1 9BE         1 TEMP              0 ****  ****    0 ROOT
