@<TRIPOS>MOLECULE
9BE
   19    19     1     0     0
SMALL
No Charge or Current Charge


@<TRIPOS>ATOM
      1 S01         -3.7820     0.0080     0.3750 s          1 9BE      -0.573400
      2 C02         -2.7000     0.0060    -0.9080 cs         1 9BE       0.360200
      3 N03         -1.3390     0.0000    -0.7540 ns         1 9BE      -0.392900
      4 C04         -0.6190    -0.0050     0.5160 c3         1 9BE       0.130300
      5 C05          0.8860    -0.0100     0.2930 ca         1 9BE      -0.126300
      6 C06          1.5830    -1.2300     0.1850 ca         1 9BE      -0.092000
      7 C07          2.9730    -1.2340    -0.0260 ca         1 9BE      -0.112000
      8 C08          3.6740    -0.0200    -0.1300 ca         1 9BE      -0.095000
      9 C09          2.9820     1.1980    -0.0260 ca         1 9BE      -0.112000
     10 C10          1.5920     1.2040     0.1850 ca         1 9BE      -0.092000
     11 H2          -3.0070     0.0090    -1.9550 h5         1 9BE       0.042200
     12 H3          -0.9070     0.8830     1.0950 h1         1 9BE       0.078200
     13 H4          -0.9140    -0.8930     1.0920 h1         1 9BE       0.078200
     14 H5           1.0490    -2.1750     0.2630 ha         1 9BE       0.118000
     15 H6           3.5070    -2.1780    -0.1080 ha         1 9BE       0.118000
     16 H7           4.7490    -0.0240    -0.2930 ha         1 9BE       0.117000
     17 H8           3.5230     2.1390    -0.1080 ha         1 9BE       0.118000
     18 H9           1.0640     2.1530     0.2630 ha         1 9BE       0.118000
     19 H1          -0.7840    -0.0010    -1.6030 hn         1 9BE       0.317500
@<TRIPOS>BOND
     1     1     2 2   
     2     2     3 1   
     3     2    11 1   
     4     3     4 1   
     5     3    19 1   
     6     4     5 1   
     7     4    12 1   
     8     4    13 1   
     9     5     6 ar  
    10     5    10 ar  
    11     6     7 ar  
    12     6    14 1   
    13     7     8 ar  
    14     7    15 1   
    15     8     9 ar  
    16     8    16 1   
    17     9    10 ar  
    18     9    17 1   
    19    10    18 1   
@<TRIPOS>SUBSTRUCTURE
     1 9BE         1 TEMP              0 ****  ****    0 ROOT
