@<TRIPOS>MOLECULE
9BF
   27    28     1     0     0
SMALL
No Charge or Current Charge


@<TRIPOS>ATOM
      1 CAM          4.0480    -1.3830    -0.5000 c3         1 9BF      -0.202100
      2 CAK          3.6580     0.0940    -0.5560 c          1 9BF       0.569100
      3 OAL          4.4910     0.9820    -0.4280 o          1 9BF      -0.525100
      4 CAJ          2.1740     0.4050    -0.7730 c3         1 9BF      -0.183400
      5 CAI          1.4620     0.6840     0.5690 c3         1 9BF       0.011800
      6 CAG         -0.0090     0.9560     0.3960 cc         1 9BF      -0.144400
      7 CAE         -1.0320    -0.0040     0.0900 ca         1 9BF      -0.097800
      8 CAF         -0.9470    -1.3920    -0.1010 ca         1 9BF      -0.062000
      9 CAA         -2.1370    -2.0920    -0.3920 ca         1 9BF      -0.142000
     10 CAB         -3.3690    -1.4020    -0.4820 ca         1 9BF      -0.092000
     11 CAC         -3.4180    -0.0060    -0.2800 ca         1 9BF      -0.129000
     12 CAD         -2.2210     0.6640     0.0070 ca         1 9BF      -0.046200
     13 NAH         -2.0410     2.0140     0.2420 na         1 9BF      -0.224700
     14 CAN         -0.6560     2.1860     0.4860 cd         1 9BF      -0.156100
     15 H1           3.4170    -1.8920     0.2370 hc         1 9BF       0.059700
     16 H2           3.7440    -1.8640    -1.4370 hc         1 9BF       0.059700
     17 H3           5.1150    -1.5320    -0.3000 hc         1 9BF       0.059700
     18 H4           2.0770     1.2890    -1.4130 hc         1 9BF       0.063700
     19 H5           1.6850    -0.4590    -1.2370 hc         1 9BF       0.063700
     20 H6           1.5960    -0.1750     1.2390 hc         1 9BF       0.055700
     21 H7           1.9410     1.5390     1.0620 hc         1 9BF       0.055700
     22 H8           0.0040    -1.9140    -0.0260 ha         1 9BF       0.112000
     23 H9          -2.1070    -3.1690    -0.5460 ha         1 9BF       0.110000
     24 H10         -4.2820    -1.9490    -0.7060 ha         1 9BF       0.109000
     25 H11         -4.3610     0.5330    -0.3450 ha         1 9BF       0.112000
     26 H12         -2.7570     2.7350     0.2400 hn         1 9BF       0.350000
     27 H13         -0.2320     3.1640     0.6990 h4         1 9BF       0.212000
@<TRIPOS>BOND
     1     1     2 1   
     2     1    15 1   
     3     1    16 1   
     4     1    17 1   
     5     2     3 2   
     6     2     4 1   
     7     4     5 1   
     8     4    18 1   
     9     4    19 1   
    10     5     6 1   
    11     5    20 1   
    12     5    21 1   
    13     6     7 1   
    14     6    14 2   
    15     7     8 ar  
    16     7    12 ar  
    17     8     9 ar  
    18     8    22 1   
    19     9    10 ar  
    20     9    23 1   
    21    10    11 ar  
    22    10    24 1   
    23    11    12 ar  
    24    11    25 1   
    25    12    13 1   
    26    13    14 1   
    27    13    26 1   
    28    14    27 1   
@<TRIPOS>SUBSTRUCTURE
     1 9BF         1 TEMP              0 ****  ****    0 ROOT
