@<TRIPOS>MOLECULE
9BF
   27    28     1     0     0
SMALL
bcc


@<TRIPOS>ATOM
      1 CAM          4.3100    -1.0070    -1.2080 c3         1 9BF      -0.202100
      2 CAK          3.5960    -0.2430    -0.1250 c          1 9BF       0.569100
      3 OAL          4.1490     0.0870     0.9010 o          1 9BF      -0.525100
      4 CAJ          2.1480     0.0690    -0.3960 c3         1 9BF      -0.183400
      5 CAI          1.3890     0.6850     0.7760 c3         1 9BF       0.011800
      6 CAG         -0.0380     0.9560     0.4280 cc         1 9BF      -0.144400
      7 CAE         -1.0700    -0.0170     0.2150 ca         1 9BF      -0.097800
      8 CAF         -1.1150    -1.4140     0.2900 ca         1 9BF      -0.080000
      9 CAA         -2.3050    -2.0620     0.0190 ca         1 9BF      -0.160000
     10 CAB         -3.4590    -1.3400    -0.3290 ca         1 9BF      -0.110000
     11 CAC         -3.4470     0.0400    -0.4070 ca         1 9BF      -0.147000
     12 CAD         -2.2440     0.6900    -0.1310 ca         1 9BF      -0.046200
     13 NAH         -1.9350     2.0170    -0.1260 na         1 9BF      -0.174400
     14 CAN         -0.6180     2.1730     0.2090 cd         1 9BF      -0.106100
     15 H1           4.0560    -2.0660    -1.1130 hc         1 9BF       0.059700
     16 H2           3.9860    -0.6930    -2.2000 hc         1 9BF       0.059700
     17 H3           5.3900    -0.9050    -1.1240 hc         1 9BF       0.059700
     18 H4           2.1210     0.7420    -1.2610 hc         1 9BF       0.063700
     19 H5           1.6610    -0.8490    -0.7430 hc         1 9BF       0.063700
     20 H6           1.4420     0.0120     1.6370 hc         1 9BF       0.055700
     21 H7           1.8750     1.6140     1.0790 hc         1 9BF       0.055700
     22 H8          -0.2320    -1.9820     0.5580 ha         1 9BF       0.130000
     23 H9          -2.3530    -3.1420     0.0720 ha         1 9BF       0.128000
     24 H10         -4.3750    -1.8750    -0.5410 ha         1 9BF       0.127000
     25 H11         -4.3380     0.5930    -0.6750 ha         1 9BF       0.130000
     26 H12         -2.5710     2.7700    -0.3290 hn         1 9BF       0.299700
     27 H13         -0.1810     3.1580     0.2680 h4         1 9BF       0.162000
@<TRIPOS>BOND
     1     1     2 1   
     2     1    15 1   
     3     1    16 1   
     4     1    17 1   
     5     2     3 2   
     6     2     4 1   
     7     4     5 1   
     8     4    18 1   
     9     4    19 1   
    10     5     6 1   
    11     5    20 1   
    12     5    21 1   
    13     6     7 1   
    14     6    14 2   
    15     7     8 ar  
    16     7    12 ar  
    17     8     9 ar  
    18     8    22 1   
    19     9    10 ar  
    20     9    23 1   
    21    10    11 ar  
    22    10    24 1   
    23    11    12 ar  
    24    11    25 1   
    25    12    13 1   
    26    13    14 1   
    27    13    26 1   
    28    14    27 1   
@<TRIPOS>SUBSTRUCTURE
     1 9BF         1 TEMP              0 ****  ****    0 ROOT
