@<TRIPOS>MOLECULE
9BH
   72    75     1     0     0
SMALL
abcg2


@<TRIPOS>ATOM
      1 CAO         -7.0690    -2.4870    -1.6540 cy         1 9BH      -0.072900
      2 CAN         -8.1050    -1.7260    -2.5020 cy         1 9BH      -0.089400
      3 CAP         -6.9460    -1.0560    -3.2620 cy         1 9BH      -0.072900
      4 CBF         -5.9730    -1.5040    -2.1560 cy         1 9BH      -0.173700
      5 CAX         -5.6760    -0.4460    -1.1220 c          1 9BH       0.614100
      6 OAE         -6.3730     0.5480    -0.9720 o          1 9BH      -0.615100
      7 NAV         -4.6110    -0.7210    -0.3430 ns         1 9BH      -0.498900
      8 CBH         -4.1730     0.1140     0.7490 c3         1 9BH       0.047700
      9 CBJ         -4.4020    -0.5480     2.1400 c3         1 9BH      -0.047000
     10 CAD         -4.0260     0.4450     3.2420 c3         1 9BH      -0.089100
     11 CAB         -5.8910    -0.8770     2.2690 c3         1 9BH      -0.089100
     12 CAC         -3.5920    -1.8320     2.3190 c3         1 9BH      -0.089100
     13 CAZ         -2.7090     0.4620     0.5020 c          1 9BH       0.605100
     14 OAG         -1.9250    -0.4050     0.1330 o          1 9BH      -0.622100
     15 N           -2.2940     1.7210     0.7030 n          1 9BH      -0.387800
     16 CD2         -3.0820     2.9130     0.9840 c5         1 9BH       0.070000
     17 CG          -2.1940     4.0360     0.4580 c5         1 9BH       0.153300
     18 OD1         -2.2540     4.1460    -0.9450 oh         1 9BH      -0.653000
     19 CB          -0.8090     3.5310     0.8290 c5         1 9BH      -0.081400
     20 CA          -0.8840     2.0270     0.5340 c5         1 9BH       0.034700
     21 C           -0.0380     1.2260     1.5160 c          1 9BH       0.598100
     22 O           -0.3860     1.0600     2.6750 o          1 9BH      -0.607100
     23 NAU          1.1330     0.7910     1.0360 ns         1 9BH      -0.493900
     24 CAQ          2.0500     0.0100     1.8450 c3         1 9BH       0.151300
     25 CBA          3.3300    -0.2270     1.0950 ca         1 9BH      -0.109300
     26 CAI          4.3980     0.6570     1.2120 ca         1 9BH      -0.094000
     27 CAK          5.5710     0.4500     0.5050 ca         1 9BH      -0.100500
     28 CAJ          3.4640    -1.3230     0.2490 ca         1 9BH      -0.094000
     29 CAL          4.6370    -1.5380    -0.4570 ca         1 9BH      -0.100500
     30 CBC          5.7070    -0.6490    -0.3450 ca         1 9BH       0.002000
     31 CBD          6.9480    -0.8740    -1.0880 cc         1 9BH      -0.189000
     32 SAW          8.4860    -0.6910    -0.3240 ss         1 9BH      -0.027400
     33 CAM          9.2480    -1.1080    -1.7990 cc         1 9BH       0.415300
     34 NAT          8.4410    -1.3620    -2.7750 nd         1 9BH      -0.637000
     35 CBB          7.1320    -1.2350    -2.3970 cd         1 9BH       0.303300
     36 CAA          6.0600    -1.4610    -3.4110 c3         1 9BH      -0.122400
     37 H1          -7.2360    -2.5380    -0.5770 hc         1 9BH       0.055450
     38 H2          -6.8860    -3.4970    -2.0200 hc         1 9BH       0.055450
     39 H3          -8.8020    -2.3270    -3.0840 hc         1 9BH       0.056200
     40 H4          -8.6760    -1.0120    -1.9090 hc         1 9BH       0.056200
     41 H5          -6.7230    -1.5620    -4.2020 hc         1 9BH       0.055450
     42 H6          -7.0220     0.0130    -3.4540 hc         1 9BH       0.055450
     43 H7          -5.0490    -1.9770    -2.4940 hc         1 9BH       0.068700
     44 H8          -4.0560    -1.5340    -0.5590 hn         1 9BH       0.329500
     45 H9          -4.7960     1.0070     0.7240 h1         1 9BH       0.086700
     46 H10         -4.6280     1.3540     3.1830 hc         1 9BH       0.040033
     47 H11         -4.2130    -0.0000     4.2210 hc         1 9BH       0.040033
     48 H12         -2.9730     0.7280     3.2080 hc         1 9BH       0.040033
     49 H13         -6.2040    -1.6470     1.5630 hc         1 9BH       0.040033
     50 H14         -6.0990    -1.2510     3.2730 hc         1 9BH       0.040033
     51 H15         -6.5140     0.0040     2.1060 hc         1 9BH       0.040033
     52 H16         -2.5190    -1.6450     2.3560 hc         1 9BH       0.040033
     53 H17         -3.8760    -2.3090     3.2590 hc         1 9BH       0.040033
     54 H18         -3.7810    -2.5550     1.5230 hc         1 9BH       0.040033
     55 H19         -4.0560     2.8900     0.4940 h1         1 9BH       0.061700
     56 H20         -3.2450     3.0420     2.0570 h1         1 9BH       0.061700
     57 H21         -2.4330     4.9840     0.9500 h1         1 9BH       0.052700
     58 H22         -3.1440     4.4150    -1.1940 ho         1 9BH       0.449000
     59 H23         -0.0110     4.0240     0.2760 hc         1 9BH       0.072700
     60 H24         -0.6430     3.7070     1.8930 hc         1 9BH       0.072700
     61 H25         -0.5700     1.8200    -0.4940 h1         1 9BH       0.078700
     62 H26          1.3170     0.8700     0.0490 hn         1 9BH       0.322500
     63 H27          2.2540     0.5420     2.7760 h1         1 9BH       0.059700
     64 H28          1.5920    -0.9450     2.1180 h1         1 9BH       0.059700
     65 H29          4.3180     1.5170     1.8660 ha         1 9BH       0.120500
     66 H30          6.3840     1.1590     0.6080 ha         1 9BH       0.121000
     67 H31          2.6500    -2.0320     0.1510 ha         1 9BH       0.120500
     68 H32          4.7250    -2.4180    -1.0810 ha         1 9BH       0.121000
     69 H33         10.3260    -1.1440    -1.8790 h5         1 9BH       0.053100
     70 H34          5.8640    -2.5260    -3.5530 hc         1 9BH       0.052367
     71 H35          5.1240    -0.9890    -3.1200 hc         1 9BH       0.052367
     72 H36          6.3640    -1.0540    -4.3740 hc         1 9BH       0.052367
@<TRIPOS>BOND
     1     1     2 1   
     2     1     4 1   
     3     1    37 1   
     4     1    38 1   
     5     2     3 1   
     6     2    39 1   
     7     2    40 1   
     8     3     4 1   
     9     3    41 1   
    10     3    42 1   
    11     4     5 1   
    12     4    43 1   
    13     5     6 2   
    14     5     7 1   
    15     7     8 1   
    16     7    44 1   
    17     8     9 1   
    18     8    13 1   
    19     8    45 1   
    20     9    10 1   
    21     9    11 1   
    22     9    12 1   
    23    10    46 1   
    24    10    47 1   
    25    10    48 1   
    26    11    49 1   
    27    11    50 1   
    28    11    51 1   
    29    12    52 1   
    30    12    53 1   
    31    12    54 1   
    32    13    14 2   
    33    13    15 1   
    34    15    16 1   
    35    15    20 1   
    36    16    17 1   
    37    16    55 1   
    38    16    56 1   
    39    17    18 1   
    40    17    19 1   
    41    17    57 1   
    42    18    58 1   
    43    19    20 1   
    44    19    59 1   
    45    19    60 1   
    46    20    21 1   
    47    20    61 1   
    48    21    22 2   
    49    21    23 1   
    50    23    24 1   
    51    23    62 1   
    52    24    25 1   
    53    24    63 1   
    54    24    64 1   
    55    25    26 ar  
    56    25    28 ar  
    57    26    27 ar  
    58    26    65 1   
    59    27    30 ar  
    60    27    66 1   
    61    28    29 ar  
    62    28    67 1   
    63    29    30 ar  
    64    29    68 1   
    65    30    31 1   
    66    31    32 1   
    67    31    35 2   
    68    32    33 1   
    69    33    34 2   
    70    33    69 1   
    71    34    35 1   
    72    35    36 1   
    73    36    70 1   
    74    36    71 1   
    75    36    72 1   
@<TRIPOS>SUBSTRUCTURE
     1 9BH         1 TEMP              0 ****  ****    0 ROOT
