@<TRIPOS>MOLECULE
9BH
   72    75     1     0     0
SMALL
No Charge or Current Charge


@<TRIPOS>ATOM
      1 CAO         -7.2560    -2.6770    -1.1350 cy         1 9BH      -0.072900
      2 CAN         -8.6010    -1.9370    -1.4780 cy         1 9BH      -0.089400
      3 CAP         -7.9230    -1.3850    -2.7870 cy         1 9BH      -0.072900
      4 CBF         -6.5130    -1.7650    -2.1890 cy         1 9BH      -0.173700
      5 CAX         -6.2680    -0.5030    -1.2360 c          1 9BH       0.614100
      6 OAE         -6.8420     0.5690    -1.0870 o          1 9BH      -0.615100
      7 NAV         -5.1080    -0.7300    -0.5240 ns         1 9BH      -0.498900
      8 CBH         -4.4780     0.1990     0.4510 c3         1 9BH       0.047700
      9 CBJ         -4.8730    -0.1520     1.9400 c3         1 9BH      -0.047000
     10 CAD         -4.2480     0.8550     2.9450 c3         1 9BH      -0.089100
     11 CAB         -6.4160    -0.0840     2.1220 c3         1 9BH      -0.089100
     12 CAC         -4.3930    -1.5820     2.3180 c3         1 9BH      -0.089100
     13 CAZ         -2.9310     0.2070     0.1850 c          1 9BH       0.605100
     14 OAG         -2.3590    -0.7900    -0.2480 o          1 9BH      -0.622100
     15 N           -2.1800     1.3680     0.4820 n          1 9BH      -0.387800
     16 CD2         -2.7470     2.7390     0.3940 c5         1 9BH       0.070000
     17 CG          -1.4910     3.6390     0.1770 c5         1 9BH       0.153300
     18 OD1         -1.1700     3.8040    -1.2090 oh         1 9BH      -0.653000
     19 CB          -0.3980     2.8260     0.9130 c5         1 9BH      -0.081400
     20 CA          -0.6920     1.3730     0.4380 c5         1 9BH       0.034700
     21 C            0.0100     0.3770     1.4150 c          1 9BH       0.598100
     22 O           -0.4700    -0.1740     2.3990 o          1 9BH      -0.607100
     23 NAU          1.3110     0.1800     1.0080 ns         1 9BH      -0.493900
     24 CAQ          2.2590    -0.6930     1.6930 c3         1 9BH       0.151300
     25 CBA          3.6210    -0.6470     1.0220 ca         1 9BH      -0.109300
     26 CAI          4.5740     0.3130     1.4130 ca         1 9BH      -0.094000
     27 CAK          5.8320     0.3580     0.7870 ca         1 9BH      -0.100500
     28 CAJ          3.9420    -1.5610     0.0000 ca         1 9BH      -0.094000
     29 CAL          5.2010    -1.5140    -0.6240 ca         1 9BH      -0.100500
     30 CBC          6.1510    -0.5470    -0.2410 ca         1 9BH       0.002000
     31 CBD          7.4670    -0.4920    -0.8740 cc         1 9BH      -0.189000
     32 SAW          8.9760    -0.4440    -0.0170 ss         1 9BH      -0.027400
     33 CAM          9.7540    -0.3500    -1.5770 cc         1 9BH       0.415300
     34 NAT          8.9570    -0.3190    -2.6420 nd         1 9BH      -0.637000
     35 CBB          7.6300    -0.3880    -2.2420 cd         1 9BH       0.303300
     36 CAA          6.5510    -0.3240    -3.2900 c3         1 9BH      -0.122400
     37 H1          -6.9360    -2.6300    -0.0880 hc         1 9BH       0.055450
     38 H2          -7.2660    -3.7350    -1.4200 hc         1 9BH       0.055450
     39 H3          -9.4660    -2.5900    -1.6400 hc         1 9BH       0.056200
     40 H4          -8.8930    -1.1680    -0.7550 hc         1 9BH       0.056200
     41 H5          -8.1760    -1.9730    -3.6770 hc         1 9BH       0.055450
     42 H6          -8.1140    -0.3360    -3.0380 hc         1 9BH       0.055450
     43 H7          -5.6790    -2.1190    -2.8040 hc         1 9BH       0.068700
     44 H8          -4.6310    -1.6030    -0.7160 hn         1 9BH       0.329500
     45 H9          -4.8420     1.2100     0.2380 h1         1 9BH       0.086700
     46 H10         -4.5810     1.8780     2.7320 hc         1 9BH       0.040033
     47 H11         -4.5520     0.6190     3.9720 hc         1 9BH       0.040033
     48 H12         -3.1530     0.8300     2.9200 hc         1 9BH       0.040033
     49 H13         -6.9280    -0.8450     1.5220 hc         1 9BH       0.040033
     50 H14         -6.6970    -0.2540     3.1690 hc         1 9BH       0.040033
     51 H15         -6.8020     0.8990     1.8270 hc         1 9BH       0.040033
     52 H16         -3.3010    -1.6650     2.2580 hc         1 9BH       0.040033
     53 H17         -4.6860    -1.8330     3.3450 hc         1 9BH       0.040033
     54 H18         -4.8290    -2.3390     1.6570 hc         1 9BH       0.040033
     55 H19         -3.4650     2.8410    -0.4310 h1         1 9BH       0.061700
     56 H20         -3.2560     3.0110     1.3270 h1         1 9BH       0.061700
     57 H21         -1.6280     4.6250     0.6440 h1         1 9BH       0.052700
     58 H22         -1.8500     4.4000    -1.5940 ho         1 9BH       0.449000
     59 H23          0.6170     3.1570     0.6620 hc         1 9BH       0.072700
     60 H24         -0.5110     2.9230     1.9990 hc         1 9BH       0.072700
     61 H25         -0.3350     1.1940    -0.5850 h1         1 9BH       0.078700
     62 H26          1.6250     0.6750     0.1830 hn         1 9BH       0.322500
     63 H27          2.3480    -0.3730     2.7400 h1         1 9BH       0.059700
     64 H28          1.8700    -1.7200     1.6840 h1         1 9BH       0.059700
     65 H29          4.3400     1.0260     2.2010 ha         1 9BH       0.120500
     66 H30          6.5590     1.1050     1.0980 ha         1 9BH       0.121000
     67 H31          3.2170    -2.3110    -0.3090 ha         1 9BH       0.120500
     68 H32          5.4390    -2.2370    -1.3990 ha         1 9BH       0.121000
     69 H33         10.8350    -0.3100    -1.6210 h5         1 9BH       0.053100
     70 H34          6.2140    -1.3290    -3.5660 hc         1 9BH       0.052367
     71 H35          5.6820     0.2400    -2.9320 hc         1 9BH       0.052367
     72 H36          6.9090     0.1700    -4.2010 hc         1 9BH       0.052367
@<TRIPOS>BOND
     1     1     2 1   
     2     1     4 1   
     3     1    37 1   
     4     1    38 1   
     5     2     3 1   
     6     2    39 1   
     7     2    40 1   
     8     3     4 1   
     9     3    41 1   
    10     3    42 1   
    11     4     5 1   
    12     4    43 1   
    13     5     6 2   
    14     5     7 1   
    15     7     8 1   
    16     7    44 1   
    17     8     9 1   
    18     8    13 1   
    19     8    45 1   
    20     9    10 1   
    21     9    11 1   
    22     9    12 1   
    23    10    46 1   
    24    10    47 1   
    25    10    48 1   
    26    11    49 1   
    27    11    50 1   
    28    11    51 1   
    29    12    52 1   
    30    12    53 1   
    31    12    54 1   
    32    13    14 2   
    33    13    15 1   
    34    15    16 1   
    35    15    20 1   
    36    16    17 1   
    37    16    55 1   
    38    16    56 1   
    39    17    18 1   
    40    17    19 1   
    41    17    57 1   
    42    18    58 1   
    43    19    20 1   
    44    19    59 1   
    45    19    60 1   
    46    20    21 1   
    47    20    61 1   
    48    21    22 2   
    49    21    23 1   
    50    23    24 1   
    51    23    62 1   
    52    24    25 1   
    53    24    63 1   
    54    24    64 1   
    55    25    26 ar  
    56    25    28 ar  
    57    26    27 ar  
    58    26    65 1   
    59    27    30 ar  
    60    27    66 1   
    61    28    29 ar  
    62    28    67 1   
    63    29    30 ar  
    64    29    68 1   
    65    30    31 1   
    66    31    32 1   
    67    31    35 2   
    68    32    33 1   
    69    33    34 2   
    70    33    69 1   
    71    34    35 1   
    72    35    36 1   
    73    36    70 1   
    74    36    71 1   
    75    36    72 1   
@<TRIPOS>SUBSTRUCTURE
     1 9BH         1 TEMP              0 ****  ****    0 ROOT
