@<TRIPOS>MOLECULE
9BI
   41    41     1     0     0
SMALL
No Charge or Current Charge


@<TRIPOS>ATOM
      1 C10        -27.3380   -40.9060    36.4160 c3         1 9BI       0.172800
      2 C15        -31.1750   -38.6210    37.9670 ca         1 9BI      -0.021000
      3 C17        -32.4350   -36.6050    38.5450 ca         1 9BI      -0.084500
      4 C20        -31.7310   -39.2700    39.0930 ca         1 9BI      -0.149500
      5 C01        -26.3660   -42.0480    34.4370 c3         1 9BI       0.142100
      6 C03        -24.9200   -40.7790    36.0060 c3         1 9BI       0.166800
      7 C04        -23.7690   -40.4880    35.0150 c3         1 9BI      -0.070400
      8 C05        -22.4290   -40.1690    35.7230 c3         1 9BI      -0.161400
      9 C06        -21.3070   -39.8930    34.7130 c          1 9BI       0.602100
     10 C11        -28.7630   -40.7520    35.8510 c3         1 9BI      -0.160400
     11 C12        -29.7620   -40.5360    36.9880 c          1 9BI       0.605100
     12 C16        -31.5340   -37.2840    37.7070 ca         1 9BI      -0.149500
     13 C18        -32.9850   -37.2600    39.6580 ca         1 9BI      -0.136000
     14 C19        -32.6320   -38.5910    39.9320 ca         1 9BI      -0.084500
     15 N02        -26.2650   -40.9080    35.3870 n3         1 9BI      -0.716600
     16 N08        -20.9160   -38.5630    34.6150 ns         1 9BI      -0.388400
     17 N14        -30.2550   -39.2390    37.0760 ns         1 9BI      -0.148000
     18 O07        -20.7820   -40.7860    34.0600 o          1 9BI      -0.567100
     19 O09        -19.7000   -38.1910    33.9200 oh         1 9BI      -0.426100
     20 O13        -30.1020   -41.4590    37.7190 o          1 9BI      -0.584100
     21 H1         -27.2890   -41.8260    37.0160 h1         1 9BI       0.047200
     22 H2         -27.1690   -40.0680    37.1070 h1         1 9BI       0.047200
     23 H3         -32.7060   -35.5730    38.3320 ha         1 9BI       0.113000
     24 H4         -31.4760   -40.2950    39.3390 ha         1 9BI       0.126500
     25 H5         -27.3440   -42.0700    33.9400 h1         1 9BI       0.034367
     26 H6         -25.6140   -41.9740    33.6420 h1         1 9BI       0.034367
     27 H7         -26.2230   -43.0050    34.9580 h1         1 9BI       0.034367
     28 H8         -24.6780   -41.6900    36.5700 h1         1 9BI       0.030200
     29 H9         -24.9390   -39.9530    36.7300 h1         1 9BI       0.030200
     30 H10        -24.0520   -39.6410    34.3780 hc         1 9BI       0.063200
     31 H11        -23.6210   -41.3520    34.3560 hc         1 9BI       0.063200
     32 H12        -22.1450   -41.0350    36.3330 hc         1 9BI       0.059200
     33 H13        -22.5760   -39.2950    36.3690 hc         1 9BI       0.059200
     34 H14        -28.7760   -39.8950    35.1670 hc         1 9BI       0.066700
     35 H15        -29.0420   -41.6670    35.3180 hc         1 9BI       0.066700
     36 H16        -31.1140   -36.7650    36.8470 ha         1 9BI       0.126500
     37 H17        -33.6830   -36.7360    40.3090 ha         1 9BI       0.115000
     38 H18        -33.0560   -39.0970    40.7970 ha         1 9BI       0.113000
     39 H20        -21.2760   -37.8870    35.2870 hn         1 9BI       0.331500
     40 H21        -29.8850   -38.6110    36.3750 hn         1 9BI       0.149000
     41 H22        -19.9890   -37.4630    33.3190 ho         1 9BI       0.446000
@<TRIPOS>BOND
     1     1    10 1   
     2     1    15 1   
     3     1    21 1   
     4     1    22 1   
     5     2     4 ar  
     6     2    12 ar  
     7     2    17 1   
     8     3    12 ar  
     9     3    13 ar  
    10     3    23 1   
    11     4    14 ar  
    12     4    24 1   
    13     5    15 1   
    14     5    25 1   
    15     5    26 1   
    16     5    27 1   
    17     6     7 1   
    18     6    15 1   
    19     6    28 1   
    20     6    29 1   
    21     7     8 1   
    22     7    30 1   
    23     7    31 1   
    24     8     9 1   
    25     8    32 1   
    26     8    33 1   
    27     9    16 1   
    28     9    18 2   
    29    10    11 1   
    30    10    34 1   
    31    10    35 1   
    32    11    17 1   
    33    11    20 2   
    34    12    36 1   
    35    13    14 ar  
    36    13    37 1   
    37    14    38 1   
    38    16    19 1   
    39    16    39 1   
    40    17    40 1   
    41    19    41 1   
@<TRIPOS>SUBSTRUCTURE
     1 9BI         1 TEMP              0 ****  ****    0 ROOT
