@<TRIPOS>MOLECULE
9BI
   41    41     1     0     0
SMALL
bcc


@<TRIPOS>ATOM
      1 C10        -27.0720   -40.3910    36.5570 c3         1 9BI       0.172800
      2 C15        -31.4300   -38.6130    38.0240 ca         1 9BI       0.071600
      3 C17        -33.4020   -37.2580    38.3800 ca         1 9BI      -0.102500
      4 C20        -31.6900   -39.2810    39.2220 ca         1 9BI      -0.167500
      5 C01        -26.4070   -41.6780    34.6490 c3         1 9BI       0.142100
      6 C03        -24.7670   -40.5040    35.9560 c3         1 9BI       0.166800
      7 C04        -23.7080   -40.4470    34.8650 c3         1 9BI      -0.070400
      8 C05        -22.3190   -40.2730    35.4710 c3         1 9BI      -0.161400
      9 C06        -21.2320   -40.3070    34.4210 c          1 9BI       0.669100
     10 C11        -28.4530   -39.9260    36.1040 c3         1 9BI      -0.160400
     11 C12        -29.4460   -39.9060    37.2460 c          1 9BI       0.672100
     12 C16        -32.2990   -37.5970    37.6160 ca         1 9BI      -0.167500
     13 C18        -33.6660   -37.9260    39.5690 ca         1 9BI      -0.154000
     14 C19        -32.8030   -38.9310    39.9770 ca         1 9BI      -0.102500
     15 N02        -26.1320   -40.5030    35.4530 n3         1 9BI      -0.716600
     16 N08        -20.3550   -39.2880    34.5260 ns         1 9BI      -0.455400
     17 N14        -30.3370   -38.8810    37.1920 ns         1 9BI      -0.474100
     18 O07        -21.1700   -41.1580    33.5520 o          1 9BI      -0.567100
     19 O09        -19.2140   -39.2930    33.7800 oh         1 9BI      -0.387100
     20 O13        -29.4480   -40.7580    38.1170 o          1 9BI      -0.584100
     21 H1         -27.1560   -41.3390    37.1080 h1         1 9BI       0.047200
     22 H2         -26.6800   -39.6550    37.2620 h1         1 9BI       0.047200
     23 H3         -34.0590   -36.4680    38.0400 ha         1 9BI       0.131000
     24 H4         -31.0400   -40.0640    39.5730 ha         1 9BI       0.144500
     25 H5         -27.4370   -41.6690    34.2930 h1         1 9BI       0.034367
     26 H6         -25.7730   -41.7030    33.7650 h1         1 9BI       0.034367
     27 H7         -26.2540   -42.6180    35.2040 h1         1 9BI       0.034367
     28 H8         -24.5730   -41.3830    36.5980 h1         1 9BI       0.030200
     29 H9         -24.6510   -39.6260    36.5980 h1         1 9BI       0.030200
     30 H10        -23.9270   -39.6140    34.1910 hc         1 9BI       0.063200
     31 H11        -23.7210   -41.3580    34.2650 hc         1 9BI       0.063200
     32 H12        -22.1190   -41.0900    36.1710 hc         1 9BI       0.059200
     33 H13        -22.2760   -39.3500    36.0540 hc         1 9BI       0.059200
     34 H14        -28.3730   -38.9460    35.6300 hc         1 9BI       0.066700
     35 H15        -28.8630   -40.6020    35.3470 hc         1 9BI       0.066700
     36 H16        -32.1090   -37.0690    36.6880 ha         1 9BI       0.144500
     37 H17        -34.5280   -37.6640    40.1680 ha         1 9BI       0.133000
     38 H18        -32.9890   -39.4600    40.9040 ha         1 9BI       0.131000
     39 H20        -20.3230   -38.6900    35.3390 hn         1 9BI       0.331500
     40 H21        -30.2360   -38.2500    36.4110 hn         1 9BI       0.315500
     41 H22        -19.3810   -38.7060    33.0320 ho         1 9BI       0.407000
@<TRIPOS>BOND
     1     1    10 1   
     2     1    15 1   
     3     1    21 1   
     4     1    22 1   
     5     2     4 ar  
     6     2    12 ar  
     7     2    17 1   
     8     3    12 ar  
     9     3    13 ar  
    10     3    23 1   
    11     4    14 ar  
    12     4    24 1   
    13     5    15 1   
    14     5    25 1   
    15     5    26 1   
    16     5    27 1   
    17     6     7 1   
    18     6    15 1   
    19     6    28 1   
    20     6    29 1   
    21     7     8 1   
    22     7    30 1   
    23     7    31 1   
    24     8     9 1   
    25     8    32 1   
    26     8    33 1   
    27     9    16 1   
    28     9    18 2   
    29    10    11 1   
    30    10    34 1   
    31    10    35 1   
    32    11    17 1   
    33    11    20 2   
    34    12    36 1   
    35    13    14 ar  
    36    13    37 1   
    37    14    38 1   
    38    16    19 1   
    39    16    39 1   
    40    17    40 1   
    41    19    41 1   
@<TRIPOS>SUBSTRUCTURE
     1 9BI         1 TEMP              0 ****  ****    0 ROOT
