@<TRIPOS>MOLECULE
9BJ
   62    65     1     0     0
SMALL
No Charge or Current Charge


@<TRIPOS>ATOM
      1 C10        -23.6130     2.9960    26.7150 c5         1 9BJ       0.331700
      2 C13        -22.6100     0.7770    23.8310 cc         1 9BJ      -0.415200
      3 C21        -27.5940    -1.3510    25.4960 c3         1 9BJ       0.247300
      4 C22        -29.0440    -0.8400    25.7270 c3         1 9BJ      -0.077400
      5 P02        -25.6340    -2.1200    27.1790 p5         1 9BJ       1.405800
      6 O03        -25.1730    -0.5810    27.1910 os         1 9BJ      -0.628400
      7 C04        -25.4650     0.2340    28.3350 c3         1 9BJ       0.229600
      8 C05        -25.1290     1.7150    28.0090 c5         1 9BJ       0.147300
      9 C06        -25.9100     2.3130    26.8090 c5         1 9BJ       0.169300
     10 O07        -27.2240     2.7340    27.2690 os         1 9BJ      -0.601400
     11 C08        -25.0610     3.5830    26.5070 c5         1 9BJ       0.114300
     12 O09        -25.3750     4.6240    27.4570 oh         1 9BJ      -0.735000
     13 N11        -23.1160     2.5210    25.3900 n          1 9BJ      -0.323000
     14 C12        -23.1560     1.1700    25.0310 cd         1 9BJ       0.035600
     15 C14        -21.9840     1.7240    22.9210 c          1 9BJ       0.598200
     16 N15        -21.9770     2.9970    23.3850 ns         1 9BJ      -0.458500
     17 C16        -22.4820     3.4650    24.5580 c          1 9BJ       0.617000
     18 O17        -22.3810     4.6460    24.8470 o          1 9BJ      -0.591000
     19 O18        -21.5000     1.4170    21.8460 o          1 9BJ      -0.589000
     20 O19        -23.7290     1.8970    27.6610 os         1 9BJ      -0.461000
     21 O20        -27.1790    -1.9030    26.7640 os         1 9BJ      -0.609400
     22 C23        -29.1100     0.4990    26.4800 c3         1 9BJ       0.225600
     23 O24        -28.5180     1.4820    25.6280 os         1 9BJ      -0.638400
     24 P25        -28.3560     2.9940    26.1460 p5         1 9BJ       1.408800
     25 O26        -27.8600     3.8900    25.0640 o          1 9BJ      -0.822500
     26 O27        -29.6190     3.5000    26.7540 o          1 9BJ      -0.822500
     27 O28        -29.0480    -1.8690    22.6110 oh         1 9BJ      -0.672000
     28 C29        -27.6500    -1.9290    22.8910 c3         1 9BJ       0.321700
     29 N30        -26.9470    -0.6650    22.5630 n          1 9BJ      -0.312000
     30 C31        -25.6500    -0.7480    22.0150 c          1 9BJ       0.627000
     31 N32        -25.0450     0.4320    21.7090 ns         1 9BJ      -0.466500
     32 C33        -25.5260     1.6880    21.8760 c          1 9BJ       0.588200
     33 C34        -26.8660     1.7240    22.4370 cc         1 9BJ      -0.395200
     34 C35        -27.5560     0.5770    22.7550 cd         1 9BJ       0.026600
     35 O36        -24.8860     2.6770    21.5720 o          1 9BJ      -0.568000
     36 O37        -25.0690    -1.8040    21.8240 o          1 9BJ      -0.583000
     37 C38        -27.4350    -2.4280    24.3600 c3         1 9BJ       0.081300
     38 O39        -28.2780    -3.5810    24.6220 oh         1 9BJ      -0.670000
     39 H1         -22.9110     3.7570    27.0820 h2         1 9BJ       0.097700
     40 H2         -22.6090    -0.2580    23.5080 ha         1 9BJ       0.239000
     41 H3         -26.9540    -0.4970    25.2350 h1         1 9BJ       0.057700
     42 H4         -29.5760    -0.7130    24.7820 hc         1 9BJ       0.046700
     43 H5         -29.6090    -1.5920    26.2910 hc         1 9BJ       0.046700
     44 H6         -26.5270     0.1620    28.6070 h1         1 9BJ       0.038700
     45 H7         -24.8690    -0.0820    29.2000 h1         1 9BJ       0.038700
     46 H8         -25.3250     2.3050    28.9140 h1         1 9BJ       0.060700
     47 H9         -25.9730     1.6250    25.9530 h1         1 9BJ       0.075700
     48 H10        -25.2120     3.9350    25.4770 h1         1 9BJ       0.094700
     49 H11        -26.2860     4.3890    27.7660 ho         1 9BJ       0.534000
     50 H12        -23.6090     0.4930    25.7520 h4         1 9BJ       0.276000
     51 H13        -21.5440     3.6820    22.7880 hn         1 9BJ       0.321500
     52 H14        -30.1590     0.7470    26.6890 h1         1 9BJ       0.028700
     53 H15        -28.5730     0.4200    27.4340 h1         1 9BJ       0.028700
     54 H17        -29.4080    -2.6430    23.1030 ho         1 9BJ       0.468000
     55 H18        -27.2400    -2.6990    22.2260 h2         1 9BJ       0.055700
     56 H19        -24.1190     0.3630    21.3190 hn         1 9BJ       0.333500
     57 H20        -27.2850     2.7130    22.5880 ha         1 9BJ       0.267000
     58 H21        -28.5660     0.5510    23.1600 h4         1 9BJ       0.258000
     59 H22        -26.3870    -2.7420    24.3630 h1         1 9BJ       0.115700
     60 H23        -28.1800    -3.7800    25.5810 ho         1 9BJ       0.430000
     61 O01        -24.8730    -2.8990    26.1640 o          1 9BJ      -0.824500
     62 O40        -25.5180    -2.7280    28.5350 o          1 9BJ      -0.824500
@<TRIPOS>BOND
     1     1    11 1   
     2     1    13 1   
     3     1    20 1   
     4     1    39 1   
     5     2    14 2   
     6     2    15 1   
     7     2    40 1   
     8     3     4 1   
     9     3    21 1   
    10     3    37 1   
    11     3    41 1   
    12     4    22 1   
    13     4    42 1   
    14     4    43 1   
    15     5     6 1   
    16     5    21 1   
    17     5    61 1   
    18     5    62 1   
    19     6     7 1   
    20     7     8 1   
    21     7    44 1   
    22     7    45 1   
    23     8     9 1   
    24     8    20 1   
    25     8    46 1   
    26     9    10 1   
    27     9    11 1   
    28     9    47 1   
    29    10    24 1   
    30    11    12 1   
    31    11    48 1   
    32    12    49 1   
    33    13    14 1   
    34    13    17 1   
    35    14    50 1   
    36    15    16 1   
    37    15    19 2   
    38    16    17 1   
    39    16    51 1   
    40    17    18 2   
    41    22    23 1   
    42    22    52 1   
    43    22    53 1   
    44    23    24 1   
    45    24    25 1   
    46    24    26 1   
    47    27    28 1   
    48    27    54 1   
    49    28    29 1   
    50    28    37 1   
    51    28    55 1   
    52    29    30 1   
    53    29    34 1   
    54    30    31 1   
    55    30    36 2   
    56    31    32 1   
    57    31    56 1   
    58    32    33 1   
    59    32    35 2   
    60    33    34 2   
    61    33    57 1   
    62    34    58 1   
    63    37    38 1   
    64    37    59 1   
    65    38    60 1   
@<TRIPOS>SUBSTRUCTURE
     1 9BJ         1 TEMP              0 ****  ****    0 ROOT
