@<TRIPOS>MOLECULE
9BJ
   62    65     1     0     0
SMALL
abcg2


@<TRIPOS>ATOM
      1 C10        -23.8020     3.1480    26.5340 c5         1 9BJ       0.331700
      2 C13        -22.5170     0.6770    24.0340 cc         1 9BJ      -0.415200
      3 C21        -27.6520    -1.4250    25.5490 c3         1 9BJ       0.247300
      4 C22        -29.0660    -1.0380    25.9740 c3         1 9BJ      -0.077400
      5 P02        -25.3840    -1.9130    26.8670 p5         1 9BJ       1.405800
      6 O03        -25.1300    -0.3090    26.9810 os         1 9BJ      -0.628400
      7 C04        -25.4160     0.4160    28.1720 c3         1 9BJ       0.229600
      8 C05        -25.2490     1.8910    27.8970 c5         1 9BJ       0.147300
      9 C06        -26.0750     2.4390    26.7350 c5         1 9BJ       0.169300
     10 O07        -27.3520     2.8270    27.2110 os         1 9BJ      -0.601400
     11 C08        -25.2300     3.6220    26.2430 c5         1 9BJ       0.114300
     12 O09        -25.4680     4.7780    27.0300 oh         1 9BJ      -0.735000
     13 N11        -23.1220     2.5690    25.3510 n          1 9BJ      -0.323000
     14 C12        -23.1600     1.2270    25.0820 cd         1 9BJ       0.035600
     15 C14        -21.7530     1.5090    23.1420 c          1 9BJ       0.598200
     16 N15        -21.7480     2.8560    23.5010 ns         1 9BJ      -0.458500
     17 C16        -22.4260     3.4480    24.5380 c          1 9BJ       0.617000
     18 O17        -22.4110     4.6560    24.7300 o          1 9BJ      -0.591000
     19 O18        -21.1360     1.1370    22.1480 o          1 9BJ      -0.589000
     20 O19        -23.8790     2.1740    27.5480 os         1 9BJ      -0.461000
     21 O20        -27.0020    -2.0010    26.7010 os         1 9BJ      -0.609400
     22 C23        -29.1280     0.2900    26.7000 c3         1 9BJ       0.225600
     23 O24        -28.7760     1.3150    25.7550 os         1 9BJ      -0.638400
     24 P25        -28.6420     2.8670    26.1910 p5         1 9BJ       1.408800
     25 O26        -28.2790     3.6080    24.9500 o          1 9BJ      -0.822500
     26 O27        -29.7850     3.2840    27.0520 o          1 9BJ      -0.822500
     27 O28        -29.1110    -1.3560    22.7480 oh         1 9BJ      -0.672000
     28 C29        -27.7910    -1.8010    22.9710 c3         1 9BJ       0.321700
     29 N30        -26.9040    -0.6660    22.6920 n          1 9BJ      -0.312000
     30 C31        -25.7090    -0.9150    22.0310 c          1 9BJ       0.627000
     31 N32        -24.9580     0.2070    21.7720 ns         1 9BJ      -0.466500
     32 C33        -25.2340     1.5250    22.1370 c          1 9BJ       0.588200
     33 C34        -26.4690     1.6780    22.8570 cc         1 9BJ      -0.395200
     34 C35        -27.2440     0.6030    23.0880 cd         1 9BJ       0.026600
     35 O36        -24.4500     2.4200    21.8360 o          1 9BJ      -0.568000
     36 O37        -25.3460    -2.0330    21.7000 o          1 9BJ      -0.583000
     37 C38        -27.5810    -2.4040    24.3770 c3         1 9BJ       0.081300
     38 O39        -28.5640    -3.4270    24.5590 oh         1 9BJ      -0.670000
     39 H1         -23.1870     3.9840    26.8570 h2         1 9BJ       0.097700
     40 H2         -22.5780    -0.3820    23.8420 ha         1 9BJ       0.239000
     41 H3         -27.1020    -0.5260    25.2720 h1         1 9BJ       0.057700
     42 H4         -29.7100    -0.9720    25.0980 hc         1 9BJ       0.046700
     43 H5         -29.4660    -1.8250    26.6150 hc         1 9BJ       0.046700
     44 H6         -26.4440     0.2390    28.5010 h1         1 9BJ       0.038700
     45 H7         -24.7410     0.1040    28.9710 h1         1 9BJ       0.038700
     46 H8         -25.5070     2.4420    28.8060 h1         1 9BJ       0.060700
     47 H9         -26.1630     1.6940    25.9440 h1         1 9BJ       0.075700
     48 H10        -25.3790     3.8310    25.1830 h1         1 9BJ       0.094700
     49 H11        -26.4070     4.7690    27.2680 ho         1 9BJ       0.534000
     50 H12        -23.7430     0.6340    25.7710 h4         1 9BJ       0.276000
     51 H13        -21.2510     3.4900    22.8890 hn         1 9BJ       0.321500
     52 H14        -30.1370     0.4760    27.0740 h1         1 9BJ       0.028700
     53 H15        -28.4380     0.3170    27.5450 h1         1 9BJ       0.028700
     54 H17        -29.6950    -2.0460    23.0960 ho         1 9BJ       0.468000
     55 H18        -27.5210    -2.5740    22.2510 h2         1 9BJ       0.055700
     56 H19        -24.0840     0.0390    21.2900 hn         1 9BJ       0.333500
     57 H20        -26.7710     2.6490    23.2170 ha         1 9BJ       0.267000
     58 H21        -28.1810     0.6880    23.6130 h4         1 9BJ       0.258000
     59 H22        -26.5760    -2.8270    24.3870 h1         1 9BJ       0.115700
     60 H23        -28.2600    -4.2300    24.1160 ho         1 9BJ       0.430000
     61 O01        -24.7030    -2.3130    25.5990 o          1 9BJ      -0.824500
     62 O40        -25.0780    -2.5800    28.1640 o          1 9BJ      -0.824500
@<TRIPOS>BOND
     1     1    11 1   
     2     1    13 1   
     3     1    20 1   
     4     1    39 1   
     5     2    14 2   
     6     2    15 1   
     7     2    40 1   
     8     3     4 1   
     9     3    21 1   
    10     3    37 1   
    11     3    41 1   
    12     4    22 1   
    13     4    42 1   
    14     4    43 1   
    15     5     6 1   
    16     5    21 1   
    17     5    61 1   
    18     5    62 1   
    19     6     7 1   
    20     7     8 1   
    21     7    44 1   
    22     7    45 1   
    23     8     9 1   
    24     8    20 1   
    25     8    46 1   
    26     9    10 1   
    27     9    11 1   
    28     9    47 1   
    29    10    24 1   
    30    11    12 1   
    31    11    48 1   
    32    12    49 1   
    33    13    14 1   
    34    13    17 1   
    35    14    50 1   
    36    15    16 1   
    37    15    19 2   
    38    16    17 1   
    39    16    51 1   
    40    17    18 2   
    41    22    23 1   
    42    22    52 1   
    43    22    53 1   
    44    23    24 1   
    45    24    25 1   
    46    24    26 1   
    47    27    28 1   
    48    27    54 1   
    49    28    29 1   
    50    28    37 1   
    51    28    55 1   
    52    29    30 1   
    53    29    34 1   
    54    30    31 1   
    55    30    36 2   
    56    31    32 1   
    57    31    56 1   
    58    32    33 1   
    59    32    35 2   
    60    33    34 2   
    61    33    57 1   
    62    34    58 1   
    63    37    38 1   
    64    37    59 1   
    65    38    60 1   
@<TRIPOS>SUBSTRUCTURE
     1 9BJ         1 TEMP              0 ****  ****    0 ROOT
