@<TRIPOS>MOLECULE
9BK
   76    79     1     0     0
SMALL
No Charge or Current Charge


@<TRIPOS>ATOM
      1 CAA         -7.7010     3.7280    -0.9710 c3         1 9BK      -0.181100
      2 CAZ         -7.5670     2.4600    -0.1400 c          1 9BK       0.599100
      3 OAF         -8.2890     1.4880    -0.3040 o          1 9BK      -0.582100
      4 NAX         -6.5680     2.4950     0.8090 ns         1 9BK      -0.494900
      5 CBM         -6.2350     1.3960     1.7000 cx         1 9BK      -0.055600
      6 CAP         -7.0330     1.3070     2.9860 cx         1 9BK      -0.097400
      7 CAQ         -5.6040     1.7870     3.0220 cx         1 9BK      -0.097400
      8 CBB         -5.7290     0.0970     1.0640 c          1 9BK       0.639100
      9 OAH         -6.2610    -0.9940     1.2250 o          1 9BK      -0.620100
     10 NAW         -4.5990     0.2670     0.2980 ns         1 9BK      -0.481900
     11 CBJ         -3.8880    -0.8010    -0.4460 c3         1 9BK       0.048700
     12 CBL         -4.2610    -0.7870    -1.9810 c3         1 9BK      -0.046000
     13 CAE         -5.8000    -0.9140    -2.1610 c3         1 9BK      -0.091433
     14 CAC         -3.7960     0.5360    -2.6520 c3         1 9BK      -0.091433
     15 CAD         -3.6050    -1.9770    -2.7320 c3         1 9BK      -0.091433
     16 CBC         -2.3510    -0.6630    -0.1580 c          1 9BK       0.604100
     17 OAI         -1.8480     0.4330     0.0760 o          1 9BK      -0.624100
     18 N           -1.5310    -1.8130    -0.2070 n          1 9BK      -0.387800
     19 CD2         -2.0220    -3.1700     0.1480 c5         1 9BK       0.070000
     20 CG          -0.7230    -3.9320     0.5580 c5         1 9BK       0.153300
     21 OD1         -0.4270    -3.7940     1.9530 oh         1 9BK      -0.655000
     22 CB           0.3400    -3.2200    -0.3130 c5         1 9BK      -0.082400
     23 CA          -0.0460    -1.7200    -0.1470 c5         1 9BK       0.032700
     24 C            0.6190    -0.9020    -1.2990 c          1 9BK       0.604100
     25 O            0.1300    -0.5930    -2.3790 o          1 9BK      -0.603100
     26 NAV          1.8970    -0.5480    -0.9270 ns         1 9BK      -0.493900
     27 CAR          2.8090     0.2230    -1.7660 c3         1 9BK       0.144300
     28 CBD          4.1590     0.3930    -1.0890 ca         1 9BK      -0.102300
     29 CAK          5.1710    -0.5680    -1.2720 ca         1 9BK      -0.098500
     30 CAM          6.4170    -0.4130    -0.6410 ca         1 9BK      -0.097500
     31 CAL          4.4070     1.5090    -0.2680 ca         1 9BK      -0.098500
     32 CAN          5.6540     1.6610     0.3630 ca         1 9BK      -0.097500
     33 CBF          6.6650     0.6960     0.1890 ca         1 9BK      -0.004000
     34 CBG          7.9690     0.8460     0.8300 cc         1 9BK      -0.186000
     35 SAY          9.4950     0.7170     0.0120 ss         1 9BK      -0.028400
     36 CAO         10.2470     0.9820     1.5660 cc         1 9BK       0.414300
     37 NAU          9.4320     1.1170     2.6090 nd         1 9BK      -0.637000
     38 CBE          8.1110     1.0260     2.1920 cd         1 9BK       0.302300
     39 CAB          7.0170     1.1090     3.2240 c3         1 9BK      -0.122400
     40 H1          -7.8360     4.5830    -0.2990 hc         1 9BK       0.062700
     41 H2          -6.7360     3.9500    -1.4410 hc         1 9BK       0.062700
     42 H3          -8.5060     3.6650    -1.7120 hc         1 9BK       0.062700
     43 H4          -6.0390     3.3590     0.8630 hn         1 9BK       0.321500
     44 H5          -7.8190     2.0400     3.1510 hc         1 9BK       0.087200
     45 H6          -7.2450     0.3210     3.3950 hc         1 9BK       0.087200
     46 H7          -4.8590     1.1200     3.4490 hc         1 9BK       0.087200
     47 H8          -5.4310     2.8420     3.2190 hc         1 9BK       0.087200
     48 H9          -4.2210     1.2060     0.2640 hn         1 9BK       0.334500
     49 H10         -4.2070    -1.7640    -0.0320 h1         1 9BK       0.086700
     50 H11         -6.3270    -0.0440    -1.7540 hc         1 9BK       0.041589
     51 H12         -6.0670    -0.9880    -3.2220 hc         1 9BK       0.041589
     52 H13         -6.1810    -1.8100    -1.6560 hc         1 9BK       0.041589
     53 H14         -2.7060     0.6470    -2.6040 hc         1 9BK       0.041589
     54 H15         -4.0830     0.5570    -3.7110 hc         1 9BK       0.041589
     55 H16         -4.2490     1.4110    -2.1700 hc         1 9BK       0.041589
     56 H17         -3.9240    -2.9340    -2.3040 hc         1 9BK       0.041589
     57 H18         -3.8960    -1.9770    -3.7900 hc         1 9BK       0.041589
     58 H19         -2.5110    -1.9250    -2.7000 hc         1 9BK       0.041589
     59 H20         -2.7540    -3.1480     0.9670 h1         1 9BK       0.062700
     60 H21         -2.4910    -3.6540    -0.7170 h1         1 9BK       0.062700
     61 H22         -0.7940    -4.9980     0.2990 h1         1 9BK       0.053700
     62 H23         -1.0800    -4.3420     2.4430 ho         1 9BK       0.449000
     63 H24          1.3650    -3.4320     0.0110 hc         1 9BK       0.073200
     64 H25          0.2590    -3.5400    -1.3590 hc         1 9BK       0.073200
     65 H26          0.2770    -1.3180     0.8230 h1         1 9BK       0.075700
     66 H27          2.2200    -0.8460    -0.0150 hn         1 9BK       0.319500
     67 H28          2.9360    -0.2930    -2.7270 h1         1 9BK       0.065200
     68 H29          2.3640     1.2070    -1.9670 h1         1 9BK       0.065200
     69 H30          4.9930    -1.4350    -1.9040 ha         1 9BK       0.118000
     70 H31          7.1910    -1.1630    -0.7900 ha         1 9BK       0.120000
     71 H32          3.6350     2.2610    -0.1200 ha         1 9BK       0.118000
     72 H33          5.8360     2.5370     0.9810 ha         1 9BK       0.120000
     73 H34         11.3270     1.0150     1.6250 h5         1 9BK       0.053100
     74 H35          6.6190     2.1280     3.2910 hc         1 9BK       0.051700
     75 H36          6.1880     0.4350     2.9790 hc         1 9BK       0.051700
     76 H37          7.3840     0.8290     4.2180 hc         1 9BK       0.051700
@<TRIPOS>BOND
     1     1     2 1   
     2     1    40 1   
     3     1    41 1   
     4     1    42 1   
     5     2     3 2   
     6     2     4 1   
     7     4     5 1   
     8     4    43 1   
     9     5     6 1   
    10     5     7 1   
    11     5     8 1   
    12     6     7 1   
    13     6    44 1   
    14     6    45 1   
    15     7    46 1   
    16     7    47 1   
    17     8     9 2   
    18     8    10 1   
    19    10    11 1   
    20    10    48 1   
    21    11    12 1   
    22    11    16 1   
    23    11    49 1   
    24    12    13 1   
    25    12    14 1   
    26    12    15 1   
    27    13    50 1   
    28    13    51 1   
    29    13    52 1   
    30    14    53 1   
    31    14    54 1   
    32    14    55 1   
    33    15    56 1   
    34    15    57 1   
    35    15    58 1   
    36    16    17 2   
    37    16    18 1   
    38    18    19 1   
    39    18    23 1   
    40    19    20 1   
    41    19    59 1   
    42    19    60 1   
    43    20    21 1   
    44    20    22 1   
    45    20    61 1   
    46    21    62 1   
    47    22    23 1   
    48    22    63 1   
    49    22    64 1   
    50    23    24 1   
    51    23    65 1   
    52    24    25 2   
    53    24    26 1   
    54    26    27 1   
    55    26    66 1   
    56    27    28 1   
    57    27    67 1   
    58    27    68 1   
    59    28    29 ar  
    60    28    31 ar  
    61    29    30 ar  
    62    29    69 1   
    63    30    33 ar  
    64    30    70 1   
    65    31    32 ar  
    66    31    71 1   
    67    32    33 ar  
    68    32    72 1   
    69    33    34 1   
    70    34    35 1   
    71    34    38 2   
    72    35    36 1   
    73    36    37 2   
    74    36    73 1   
    75    37    38 1   
    76    38    39 1   
    77    39    74 1   
    78    39    75 1   
    79    39    76 1   
@<TRIPOS>SUBSTRUCTURE
     1 9BK         1 TEMP              0 ****  ****    0 ROOT
