@<TRIPOS>MOLECULE
9BK
   76    79     1     0     0
SMALL
abcg2


@<TRIPOS>ATOM
      1 CAA         -5.7830     4.2140     0.0720 c3         1 9BK      -0.181100
      2 CAZ         -6.2820     2.8050     0.2590 c          1 9BK       0.599100
      3 OAF         -7.0700     2.2820    -0.5110 o          1 9BK      -0.582100
      4 NAX         -5.7940     2.1580     1.3440 ns         1 9BK      -0.494900
      5 CBM         -6.2240     0.8510     1.7070 cx         1 9BK      -0.055600
      6 CAP         -7.6430     0.6770     2.1740 cx         1 9BK      -0.097400
      7 CAQ         -6.5370     0.6170     3.1630 cx         1 9BK      -0.097400
      8 CBB         -5.6120    -0.3080     0.9690 c          1 9BK       0.639100
      9 OAH         -6.0350    -1.4460     1.1210 o          1 9BK      -0.620100
     10 NAW         -4.5820     0.0050     0.1680 ns         1 9BK      -0.481900
     11 CBJ         -3.8760    -0.9530    -0.6460 c3         1 9BK       0.048700
     12 CBL         -4.1320    -0.7290    -2.1670 c3         1 9BK      -0.046000
     13 CAE         -5.6340    -0.8820    -2.4140 c3         1 9BK      -0.091433
     14 CAC         -3.6890     0.6580    -2.6350 c3         1 9BK      -0.091433
     15 CAD         -3.3830    -1.7930    -2.9680 c3         1 9BK      -0.091433
     16 CBC         -2.3980    -0.8660    -0.2770 c          1 9BK       0.604100
     17 OAI         -1.8650     0.2280    -0.1270 o          1 9BK      -0.624100
     18 N           -1.6960    -1.9980    -0.1270 n          1 9BK      -0.387800
     19 CD2         -2.1730    -3.3750    -0.1110 c5         1 9BK       0.070000
     20 CG          -1.0950    -4.1010     0.6870 c5         1 9BK       0.153300
     21 OD1         -1.2400    -3.9050     2.0740 oh         1 9BK      -0.655000
     22 CB           0.1640    -3.3750     0.2450 c5         1 9BK      -0.082400
     23 CA          -0.2770    -1.9070     0.1740 c5         1 9BK       0.032700
     24 C            0.4710    -1.1610    -0.9240 c          1 9BK       0.604100
     25 O            0.2450    -1.3740    -2.1050 o          1 9BK      -0.603100
     26 NAV          1.4340    -0.3400    -0.4820 ns         1 9BK      -0.493900
     27 CAR          2.2940     0.4300    -1.3500 c3         1 9BK       0.144300
     28 CBD          3.6970     0.5130    -0.8100 ca         1 9BK      -0.102300
     29 CAK          4.3690    -0.6320    -0.3870 ca         1 9BK      -0.098500
     30 CAM          5.6650    -0.5560     0.0910 ca         1 9BK      -0.097500
     31 CAL          4.3600     1.7320    -0.7500 ca         1 9BK      -0.098500
     32 CAN          5.6640     1.8120    -0.2850 ca         1 9BK      -0.097500
     33 CBF          6.3330     0.6700     0.1540 ca         1 9BK      -0.004000
     34 CBG          7.7030     0.7540     0.6640 cc         1 9BK      -0.186000
     35 SAY          8.9040    -0.3840     0.1670 ss         1 9BK      -0.028400
     36 CAO         10.0460     0.4110     1.1640 cc         1 9BK       0.414300
     37 NAU          9.5850     1.4310     1.8110 nd         1 9BK      -0.637000
     38 CBE          8.2590     1.6430     1.5450 cd         1 9BK       0.302300
     39 CAB          7.5580     2.7630     2.2390 c3         1 9BK      -0.122400
     40 H1          -6.6140     4.9080     0.2070 hc         1 9BK       0.062700
     41 H2          -4.9900     4.4920     0.7640 hc         1 9BK       0.062700
     42 H3          -5.4180     4.3400    -0.9460 hc         1 9BK       0.062700
     43 H4          -5.1540     2.6410     1.9550 hn         1 9BK       0.321500
     44 H5          -8.2630     1.5630     2.1560 hc         1 9BK       0.087200
     45 H6          -8.1470    -0.2400     1.9030 hc         1 9BK       0.087200
     46 H7          -6.2640    -0.3420     3.5810 hc         1 9BK       0.087200
     47 H8          -6.3930     1.4600     3.8280 hc         1 9BK       0.087200
     48 H9          -4.2530     0.9570     0.1590 hn         1 9BK       0.334500
     49 H10         -4.2820    -1.9340    -0.4010 h1         1 9BK       0.086700
     50 H11         -6.2100    -0.1110    -1.9010 hc         1 9BK       0.041589
     51 H12         -5.8450    -0.7950    -3.4820 hc         1 9BK       0.041589
     52 H13         -5.9970    -1.8570    -2.0830 hc         1 9BK       0.041589
     53 H14         -2.6150     0.8060    -2.5370 hc         1 9BK       0.041589
     54 H15         -3.9420     0.7790    -3.6910 hc         1 9BK       0.041589
     55 H16         -4.1980     1.4580    -2.0950 hc         1 9BK       0.041589
     56 H17         -3.6910    -2.8000    -2.6810 hc         1 9BK       0.041589
     57 H18         -3.5980    -1.6770    -4.0320 hc         1 9BK       0.041589
     58 H19         -2.3010    -1.7200    -2.8440 hc         1 9BK       0.041589
     59 H20         -3.1560    -3.4650     0.3530 h1         1 9BK       0.062700
     60 H21         -2.2370    -3.7880    -1.1210 h1         1 9BK       0.062700
     61 H22         -1.0700    -5.1650     0.4280 h1         1 9BK       0.053700
     62 H23         -2.0780    -4.2870     2.3540 ho         1 9BK       0.449000
     63 H24          1.0030    -3.5240     0.9220 hc         1 9BK       0.073200
     64 H25          0.4540    -3.7360    -0.7430 hc         1 9BK       0.073200
     65 H26         -0.1260    -1.4170     1.1400 h1         1 9BK       0.075700
     66 H27          1.4750    -0.1370     0.5040 hn         1 9BK       0.319500
     67 H28          2.3010    -0.0500    -2.3290 h1         1 9BK       0.065200
     68 H29          1.8930     1.4370    -1.4970 h1         1 9BK       0.065200
     69 H30          3.8730    -1.5940    -0.4230 ha         1 9BK       0.118000
     70 H31          6.1580    -1.4580     0.4310 ha         1 9BK       0.120000
     71 H32          3.8590     2.6350    -1.0760 ha         1 9BK       0.118000
     72 H33          6.1680     2.7700    -0.2750 ha         1 9BK       0.120000
     73 H34         11.0680     0.0640     1.2290 h5         1 9BK       0.053100
     74 H35          7.8280     3.7280     1.8050 hc         1 9BK       0.051700
     75 H36          6.4760     2.6640     2.1810 hc         1 9BK       0.051700
     76 H37          7.8420     2.7900     3.2910 hc         1 9BK       0.051700
@<TRIPOS>BOND
     1     1     2 1   
     2     1    40 1   
     3     1    41 1   
     4     1    42 1   
     5     2     3 2   
     6     2     4 1   
     7     4     5 1   
     8     4    43 1   
     9     5     6 1   
    10     5     7 1   
    11     5     8 1   
    12     6     7 1   
    13     6    44 1   
    14     6    45 1   
    15     7    46 1   
    16     7    47 1   
    17     8     9 2   
    18     8    10 1   
    19    10    11 1   
    20    10    48 1   
    21    11    12 1   
    22    11    16 1   
    23    11    49 1   
    24    12    13 1   
    25    12    14 1   
    26    12    15 1   
    27    13    50 1   
    28    13    51 1   
    29    13    52 1   
    30    14    53 1   
    31    14    54 1   
    32    14    55 1   
    33    15    56 1   
    34    15    57 1   
    35    15    58 1   
    36    16    17 2   
    37    16    18 1   
    38    18    19 1   
    39    18    23 1   
    40    19    20 1   
    41    19    59 1   
    42    19    60 1   
    43    20    21 1   
    44    20    22 1   
    45    20    61 1   
    46    21    62 1   
    47    22    23 1   
    48    22    63 1   
    49    22    64 1   
    50    23    24 1   
    51    23    65 1   
    52    24    25 2   
    53    24    26 1   
    54    26    27 1   
    55    26    66 1   
    56    27    28 1   
    57    27    67 1   
    58    27    68 1   
    59    28    29 ar  
    60    28    31 ar  
    61    29    30 ar  
    62    29    69 1   
    63    30    33 ar  
    64    30    70 1   
    65    31    32 ar  
    66    31    71 1   
    67    32    33 ar  
    68    32    72 1   
    69    33    34 1   
    70    34    35 1   
    71    34    38 2   
    72    35    36 1   
    73    36    37 2   
    74    36    73 1   
    75    37    38 1   
    76    38    39 1   
    77    39    74 1   
    78    39    75 1   
    79    39    76 1   
@<TRIPOS>SUBSTRUCTURE
     1 9BK         1 TEMP              0 ****  ****    0 ROOT
