@<TRIPOS>MOLECULE
9BL
   48    48     1     0     0
SMALL
bcc


@<TRIPOS>ATOM
      1 CAA          7.6230     2.2440     0.3270 c3         1 9BL       0.128700
      2 OAP          6.2430     1.8840     0.3540 os         1 9BL      -0.415900
      3 CAS          5.9450     0.5910     0.3430 c          1 9BL       0.641300
      4 OAF          6.7900    -0.2750     0.3110 o          1 9BL      -0.546000
      5 CAR          4.4750     0.3620     0.3770 ce         1 9BL      -0.169400
      6 CAC          3.5700     1.5570     0.4290 c3         1 9BL      -0.041900
      7 CAK          4.0640    -0.9120     0.3470 c2         1 9BL      -0.094200
      8 CAM          2.6550    -1.4010     0.3440 c3         1 9BL      -0.051200
      9 CAN          2.2080    -1.7850    -1.0780 c3         1 9BL      -0.036200
     10 CAQ          0.7960    -2.3100    -1.1110 c2         1 9BL      -0.114400
     11 CAB          0.5990    -3.6700    -0.5100 c3         1 9BL      -0.050900
     12 CAL         -0.1740    -1.5570    -1.6330 c2         1 9BL      -0.160200
     13 CAO         -1.6430    -1.8590    -1.7070 c3         1 9BL       0.032100
     14 CAY         -2.4250    -0.8690    -0.8810 ca         1 9BL      -0.188300
     15 CAV         -2.9200     0.3090    -1.4360 ca         1 9BL       0.273100
     16 OAH         -2.7010     0.5230    -2.7280 oh         1 9BL      -0.500100
     17 CAX         -3.6280     1.2520    -0.6540 ca         1 9BL      -0.364600
     18 CAJ         -4.1200     2.4550    -1.2840 c          1 9BL       0.603500
     19 OAE         -3.9620     2.7230    -2.4730 o          1 9BL      -0.574100
     20 CAT         -3.8420     1.0210     0.7250 ca         1 9BL       0.079700
     21 CAD         -4.5940     2.0200     1.5560 c3         1 9BL      -0.067800
     22 CAW         -3.3280    -0.1390     1.2610 ca         1 9BL      -0.138600
     23 CLA         -3.5150    -0.5250     2.9490 cl         1 9BL      -0.114400
     24 CAU         -2.6200    -1.0770     0.4790 ca         1 9BL       0.239100
     25 OAG         -2.1180    -2.1900     1.0010 oh         1 9BL      -0.473100
     26 H1           8.1110     1.8910    -0.5820 h1         1 9BL       0.047033
     27 H2           7.6480     3.3300     0.3480 h1         1 9BL       0.047033
     28 H3           8.1550     1.8540     1.1940 h1         1 9BL       0.047033
     29 H4           3.7590     2.1710     1.3110 hc         1 9BL       0.046033
     30 H5           3.7060     2.1980    -0.4420 hc         1 9BL       0.046033
     31 H6           2.5220     1.2660     0.4540 hc         1 9BL       0.046033
     32 H7           4.8210    -1.6870     0.2850 ha         1 9BL       0.142000
     33 H8           2.5910    -2.2740     0.9970 hc         1 9BL       0.053700
     34 H9           1.9640    -0.6570     0.7410 hc         1 9BL       0.053700
     35 H10          2.2940    -0.9050    -1.7190 hc         1 9BL       0.048700
     36 H11          2.8950    -2.5370    -1.4790 hc         1 9BL       0.048700
     37 H12          0.7910    -3.6590     0.5660 hc         1 9BL       0.039033
     38 H13         -0.4050    -4.0610    -0.6530 hc         1 9BL       0.039033
     39 H14          1.3010    -4.3840    -0.9460 hc         1 9BL       0.039033
     40 H15          0.1050    -0.5870    -2.0380 ha         1 9BL       0.120000
     41 H16         -1.9760    -1.8010    -2.7450 hc         1 9BL       0.062700
     42 H17         -1.8620    -2.8720    -1.3750 hc         1 9BL       0.062700
     43 H18         -3.1150     1.3870    -2.9680 ho         1 9BL       0.482000
     44 H19         -4.6660     3.1650    -0.6520 h4         1 9BL       0.007200
     45 H20         -5.5750     2.2290     1.1310 hc         1 9BL       0.058367
     46 H21         -4.7510     1.6720     2.5710 hc         1 9BL       0.058367
     47 H22         -4.0530     2.9650     1.6150 hc         1 9BL       0.058367
     48 H23         -2.3090    -2.2590     1.9460 ho         1 9BL       0.446000
@<TRIPOS>BOND
     1     1     2 1   
     2     1    26 1   
     3     1    27 1   
     4     1    28 1   
     5     2     3 1   
     6     3     4 2   
     7     3     5 1   
     8     5     6 1   
     9     5     7 2   
    10     6    29 1   
    11     6    30 1   
    12     6    31 1   
    13     7     8 1   
    14     7    32 1   
    15     8     9 1   
    16     8    33 1   
    17     8    34 1   
    18     9    10 1   
    19     9    35 1   
    20     9    36 1   
    21    10    11 1   
    22    10    12 2   
    23    11    37 1   
    24    11    38 1   
    25    11    39 1   
    26    12    13 1   
    27    12    40 1   
    28    13    14 1   
    29    13    41 1   
    30    13    42 1   
    31    14    15 ar  
    32    14    24 ar  
    33    15    16 1   
    34    15    17 ar  
    35    16    43 1   
    36    17    18 1   
    37    17    20 ar  
    38    18    19 2   
    39    18    44 1   
    40    20    21 1   
    41    20    22 ar  
    42    21    45 1   
    43    21    46 1   
    44    21    47 1   
    45    22    23 1   
    46    22    24 ar  
    47    24    25 1   
    48    25    48 1   
@<TRIPOS>SUBSTRUCTURE
     1 9BL         1 TEMP              0 ****  ****    0 ROOT
