@<TRIPOS>MOLECULE
9BL
   48    48     1     0     0
SMALL
No Charge or Current Charge


@<TRIPOS>ATOM
      1 CAA          7.6500     2.4290     0.0890 c3         1 9BL       0.151900
      2 OAP          6.2880     1.9720     0.0020 os         1 9BL      -0.439100
      3 CAS          6.0080     0.6880     0.3990 c          1 9BL       0.592300
      4 OAF          6.8540    -0.0890     0.8240 o          1 9BL      -0.497000
      5 CAR          4.5440     0.3410     0.2570 ce         1 9BL      -0.169400
      6 CAC          3.6200     1.4280    -0.2990 c3         1 9BL      -0.041900
      7 CAK          4.1000    -0.8950     0.6120 c2         1 9BL      -0.144200
      8 CAM          2.6820    -1.4340     0.5440 c3         1 9BL      -0.051200
      9 CAN          2.2960    -1.9070    -0.8750 c3         1 9BL      -0.036200
     10 CAQ          0.8360    -2.3260    -0.9860 c2         1 9BL      -0.114400
     11 CAB          0.5810    -3.7220    -0.4280 c3         1 9BL      -0.050900
     12 CAL         -0.0880    -1.5120    -1.5370 c2         1 9BL      -0.210200
     13 CAO         -1.5740    -1.7530    -1.7480 c3         1 9BL       0.032100
     14 CAY         -2.4250    -0.8230    -0.8700 ca         1 9BL      -0.188300
     15 CAV         -2.7340     0.4840    -1.2980 ca         1 9BL       0.273100
     16 OAH         -2.2700     0.9100    -2.5050 oh         1 9BL      -0.539100
     17 CAX         -3.5080     1.3560    -0.4990 ca         1 9BL      -0.364600
     18 CAJ         -3.8260     2.7560    -0.9810 c          1 9BL       0.603500
     19 OAE         -3.4460     3.1820    -2.0690 o          1 9BL      -0.574100
     20 CAT         -3.9840     0.9100     0.7640 ca         1 9BL       0.079700
     21 CAD         -4.8290     1.8430     1.6420 c3         1 9BL      -0.067800
     22 CAW         -3.6650    -0.4020     1.1970 ca         1 9BL      -0.047000
     23 ClA         -4.2140    -1.0270     2.7650 cl         1 9BL      -0.206000
     24 CAU         -2.8930    -1.2520     0.3850 ca         1 9BL       0.239100
     25 OAG         -2.6030    -2.5090     0.8370 oh         1 9BL      -0.512100
     26 H1           8.3110     1.8110    -0.5340 h1         1 9BL       0.047033
     27 H2           7.7280     3.4660    -0.2590 h1         1 9BL       0.047033
     28 H3           8.0110     2.3890     1.1250 h1         1 9BL       0.047033
     29 H4           3.6050     2.3060     0.3580 hc         1 9BL       0.046033
     30 H5           3.9530     1.7610    -1.2900 hc         1 9BL       0.046033
     31 H6           2.5820     1.0990    -0.4130 hc         1 9BL       0.046033
     32 H7           4.8080    -1.6310     1.0000 ha         1 9BL       0.192000
     33 H8           2.5810    -2.2750     1.2410 hc         1 9BL       0.053700
     34 H9           1.9650    -0.6780     0.8870 hc         1 9BL       0.053700
     35 H10          2.4990    -1.0880    -1.5760 hc         1 9BL       0.048700
     36 H11          2.9580    -2.7260    -1.1810 hc         1 9BL       0.048700
     37 H12          0.8320    -3.7740     0.6380 hc         1 9BL       0.039033
     38 H13         -0.4590    -4.0440    -0.5200 hc         1 9BL       0.039033
     39 H14          1.1940    -4.4680    -0.9470 hc         1 9BL       0.039033
     40 H15          0.2230    -0.5320    -1.9030 ha         1 9BL       0.170000
     41 H16         -1.8120    -1.5970    -2.8070 hc         1 9BL       0.062700
     42 H17         -1.8480    -2.7990    -1.5820 hc         1 9BL       0.062700
     43 H18         -2.6020     1.8380    -2.6080 ho         1 9BL       0.521000
     44 H19         -4.4240     3.4130    -0.3150 h4         1 9BL       0.007200
     45 H20         -5.7360     2.1600     1.1150 hc         1 9BL       0.058367
     46 H21         -5.1630     1.3950     2.5820 hc         1 9BL       0.058367
     47 H22         -4.2620     2.7420     1.9140 hc         1 9BL       0.058367
     48 H23         -3.0160    -2.5980     1.7220 ho         1 9BL       0.485000
@<TRIPOS>BOND
     1     1     2 1   
     2     1    26 1   
     3     1    27 1   
     4     1    28 1   
     5     2     3 1   
     6     3     4 2   
     7     3     5 1   
     8     5     6 1   
     9     5     7 2   
    10     6    29 1   
    11     6    30 1   
    12     6    31 1   
    13     7     8 1   
    14     7    32 1   
    15     8     9 1   
    16     8    33 1   
    17     8    34 1   
    18     9    10 1   
    19     9    35 1   
    20     9    36 1   
    21    10    11 1   
    22    10    12 2   
    23    11    37 1   
    24    11    38 1   
    25    11    39 1   
    26    12    13 1   
    27    12    40 1   
    28    13    14 1   
    29    13    41 1   
    30    13    42 1   
    31    14    15 ar  
    32    14    24 ar  
    33    15    16 1   
    34    15    17 ar  
    35    16    43 1   
    36    17    18 1   
    37    17    20 ar  
    38    18    19 2   
    39    18    44 1   
    40    20    21 1   
    41    20    22 ar  
    42    21    45 1   
    43    21    46 1   
    44    21    47 1   
    45    22    23 1   
    46    22    24 ar  
    47    24    25 1   
    48    25    48 1   
@<TRIPOS>SUBSTRUCTURE
     1 9BL         1 TEMP              0 ****  ****    0 ROOT
