@<TRIPOS>MOLECULE
9BN
   74    77     1     0     0
SMALL
abcg2


@<TRIPOS>ATOM
      1 CAP         -6.7640     1.9810     1.9990 cx         1 9BN      -0.079900
      2 CAQ         -6.2170     2.6910     0.8200 cx         1 9BN      -0.079900
      3 CBL         -6.6490     1.2460     0.6840 cx         1 9BN      -0.358000
      4 CAY         -7.9390     0.9780    -0.0280 c          1 9BN       0.618100
      5 OAF         -8.8070     1.8230    -0.0610 o          1 9BN      -0.525100
      6 CAA         -8.1160    -0.3740    -0.6570 c3         1 9BN      -0.198100
      7 CBA         -5.5500     0.2220     0.5720 c          1 9BN       0.639100
      8 OAH         -5.2980    -0.5900     1.4480 o          1 9BN      -0.600100
      9 NAW         -4.8730     0.2700    -0.5870 ns         1 9BN      -0.481900
     10 CBI         -3.7080    -0.5520    -0.8030 c3         1 9BN       0.048700
     11 CBK         -3.2440    -0.4770    -2.2830 c3         1 9BN      -0.044000
     12 CAE         -4.4120    -0.9170    -3.1730 c3         1 9BN      -0.090767
     13 CAC         -2.7910     0.9270    -2.6910 c3         1 9BN      -0.090767
     14 CAD         -2.0820    -1.4500    -2.4970 c3         1 9BN      -0.090767
     15 CBB         -2.6240    -0.1090     0.1830 c          1 9BN       0.604100
     16 OAI         -2.4530     1.0800     0.4160 o          1 9BN      -0.614100
     17 N           -1.8510    -1.0450     0.7550 n          1 9BN      -0.383800
     18 CD2         -2.0640    -2.4850     0.7960 c5         1 9BN       0.072000
     19 CG          -1.2800    -2.9200     2.0310 c5         1 9BN       0.154300
     20 OD1         -1.9960    -2.7030     3.2240 oh         1 9BN      -0.651000
     21 CB          -0.1070    -1.9530     2.0180 c5         1 9BN      -0.083400
     22 CA          -0.7490    -0.6250     1.5990 c5         1 9BN       0.032700
     23 C            0.2370     0.2450     0.8330 c          1 9BN       0.603100
     24 O            0.5090     0.0450    -0.3390 o          1 9BN      -0.593100
     25 NAV          0.8350     1.1930     1.5690 ns         1 9BN      -0.501900
     26 CAR          1.8540     2.0540     1.0240 c3         1 9BN       0.154300
     27 CBC          3.1500     1.3450     0.7150 ca         1 9BN      -0.086300
     28 CAK          3.6300     0.3220     1.5270 ca         1 9BN      -0.098000
     29 CAM          4.8430    -0.2880     1.2560 ca         1 9BN      -0.094500
     30 CAL          3.9140     1.7360    -0.3790 ca         1 9BN      -0.098000
     31 CAN          5.1280     1.1270    -0.6570 ca         1 9BN      -0.094500
     32 CBE          5.6150     0.1080     0.1610 ca         1 9BN      -0.009000
     33 CBF          6.8950    -0.5390    -0.1310 cc         1 9BN      -0.179000
     34 SAX          7.0580    -2.2570    -0.0610 ss         1 9BN      -0.033400
     35 CAO          8.7030    -2.1030    -0.5120 cc         1 9BN       0.413300
     36 NAU          9.1030    -0.8890    -0.6990 nd         1 9BN      -0.637000
     37 CBD          8.0960     0.0150    -0.4880 cd         1 9BN       0.298300
     38 CAB          8.3910     1.4710    -0.6300 c3         1 9BN      -0.121400
     39 H1          -6.0820     1.6800     2.7830 hc         1 9BN       0.090200
     40 H2          -7.7620     2.2270     2.3360 hc         1 9BN       0.090200
     41 H3          -6.8250     3.4360     0.3240 hc         1 9BN       0.090200
     42 H4          -5.1500     2.8750     0.7900 hc         1 9BN       0.090200
     43 H5          -7.3880    -0.5200    -1.4570 hc         1 9BN       0.066367
     44 H6          -7.9390    -1.1620     0.0780 hc         1 9BN       0.066367
     45 H7          -9.1170    -0.4830    -1.0670 hc         1 9BN       0.066367
     46 H8          -5.0130     1.0670    -1.1870 hn         1 9BN       0.327500
     47 H9          -3.9910    -1.5910    -0.6210 h1         1 9BN       0.072700
     48 H10         -5.2440    -0.2120    -3.1600 hc         1 9BN       0.041589
     49 H11         -4.0760    -0.9980    -4.2090 hc         1 9BN       0.041589
     50 H12         -4.7970    -1.8940    -2.8720 hc         1 9BN       0.041589
     51 H13         -1.9110     1.2490    -2.1370 hc         1 9BN       0.041589
     52 H14         -2.5330     0.9260    -3.7510 hc         1 9BN       0.041589
     53 H15         -3.5670     1.6830    -2.5580 hc         1 9BN       0.041589
     54 H16         -2.3660    -2.4730    -2.2420 hc         1 9BN       0.041589
     55 H17         -1.7870    -1.4440    -3.5470 hc         1 9BN       0.041589
     56 H18         -1.2050    -1.1790    -1.9080 hc         1 9BN       0.041589
     57 H19         -3.1230    -2.7330     0.8780 h1         1 9BN       0.058700
     58 H20         -1.6650    -2.9790    -0.0930 h1         1 9BN       0.058700
     59 H21         -0.9560    -3.9620     1.9370 h1         1 9BN       0.050700
     60 H22         -2.7870    -3.2510     3.2130 ho         1 9BN       0.451000
     61 H23          0.4020    -1.8880     2.9780 hc         1 9BN       0.071200
     62 H24          0.6200    -2.2790     1.2700 hc         1 9BN       0.071200
     63 H25         -1.1210    -0.0860     2.4770 h1         1 9BN       0.078700
     64 H26          0.5470     1.3360     2.5230 hn         1 9BN       0.320500
     65 H27          1.4850     2.5500     0.1230 h1         1 9BN       0.058700
     66 H28          2.0340     2.8380     1.7600 h1         1 9BN       0.058700
     67 H29          3.0550    -0.0080     2.3840 ha         1 9BN       0.113500
     68 H30          5.2010    -1.0720     1.9120 ha         1 9BN       0.117500
     69 H31          3.5510     2.5170    -1.0350 ha         1 9BN       0.113500
     70 H32          5.6850     1.4310    -1.5340 ha         1 9BN       0.117500
     71 H33          9.3350    -2.9730    -0.6230 h5         1 9BN       0.052100
     72 H34          8.4040     1.7730    -1.6790 hc         1 9BN       0.051367
     73 H35          7.6530     2.0850    -0.1180 hc         1 9BN       0.051367
     74 H36          9.3730     1.6980    -0.2150 hc         1 9BN       0.051367
@<TRIPOS>BOND
     1     1     2 1   
     2     1     3 1   
     3     1    39 1   
     4     1    40 1   
     5     2     3 1   
     6     2    41 1   
     7     2    42 1   
     8     3     4 1   
     9     3     7 1   
    10     4     5 2   
    11     4     6 1   
    12     6    43 1   
    13     6    44 1   
    14     6    45 1   
    15     7     8 2   
    16     7     9 1   
    17     9    10 1   
    18     9    46 1   
    19    10    11 1   
    20    10    15 1   
    21    10    47 1   
    22    11    12 1   
    23    11    13 1   
    24    11    14 1   
    25    12    48 1   
    26    12    49 1   
    27    12    50 1   
    28    13    51 1   
    29    13    52 1   
    30    13    53 1   
    31    14    54 1   
    32    14    55 1   
    33    14    56 1   
    34    15    16 2   
    35    15    17 1   
    36    17    18 1   
    37    17    22 1   
    38    18    19 1   
    39    18    57 1   
    40    18    58 1   
    41    19    20 1   
    42    19    21 1   
    43    19    59 1   
    44    20    60 1   
    45    21    22 1   
    46    21    61 1   
    47    21    62 1   
    48    22    23 1   
    49    22    63 1   
    50    23    24 2   
    51    23    25 1   
    52    25    26 1   
    53    25    64 1   
    54    26    27 1   
    55    26    65 1   
    56    26    66 1   
    57    27    28 ar  
    58    27    30 ar  
    59    28    29 ar  
    60    28    67 1   
    61    29    32 ar  
    62    29    68 1   
    63    30    31 ar  
    64    30    69 1   
    65    31    32 ar  
    66    31    70 1   
    67    32    33 1   
    68    33    34 1   
    69    33    37 2   
    70    34    35 1   
    71    35    36 2   
    72    35    71 1   
    73    36    37 1   
    74    37    38 1   
    75    38    72 1   
    76    38    73 1   
    77    38    74 1   
@<TRIPOS>SUBSTRUCTURE
     1 9BN         1 TEMP              0 ****  ****    0 ROOT
