@<TRIPOS>MOLECULE
9BN
   74    77     1     0     0
SMALL
No Charge or Current Charge


@<TRIPOS>ATOM
      1 CAP         -8.2630     0.7160     1.5030 cx         1 9BN      -0.079900
      2 CAQ         -7.1580     1.7390     1.6130 cx         1 9BN      -0.079900
      3 CBL         -7.2990     0.9140     0.3410 cx         1 9BN      -0.358000
      4 CAY         -7.8050     1.5890    -0.9010 c          1 9BN       0.618100
      5 OAF         -7.3620     2.6710    -1.2590 o          1 9BN      -0.525100
      6 CAA         -8.8770     0.8570    -1.7020 c3         1 9BN      -0.198100
      7 CBA         -6.2820    -0.1430     0.0740 c          1 9BN       0.639100
      8 OAH         -6.5660    -1.3270    -0.0050 o          1 9BN      -0.600100
      9 NAW         -5.0100     0.3420    -0.0830 ns         1 9BN      -0.481900
     10 CBI         -3.8120    -0.4680    -0.4070 c3         1 9BN       0.048700
     11 CBK         -3.4680    -0.4050    -1.9470 c3         1 9BN      -0.044000
     12 CAE         -4.6990    -0.8400    -2.7940 c3         1 9BN      -0.090767
     13 CAC         -3.0700     1.0380    -2.3680 c3         1 9BN      -0.090767
     14 CAD         -2.2980    -1.3610    -2.3030 c3         1 9BN      -0.090767
     15 CBB         -2.6390    -0.0130     0.5310 c          1 9BN       0.604100
     16 OAI         -2.5680     1.1430     0.9400 o          1 9BN      -0.614100
     17 N           -1.6310    -0.9400     0.8780 n          1 9BN      -0.383800
     18 CD2         -1.8870    -2.3980     1.0080 c5         1 9BN       0.072000
     19 CG          -0.7570    -2.8810     1.9710 c5         1 9BN       0.154300
     20 OD1         -1.1400    -2.7980     3.3480 oh         1 9BN      -0.651000
     21 CB           0.3760    -1.8770     1.6430 c5         1 9BN      -0.083400
     22 CA          -0.3890    -0.5230     1.5850 c5         1 9BN       0.032700
     23 C            0.4940     0.5150     0.8230 c          1 9BN       0.603100
     24 O            0.4510     0.8000    -0.3670 o          1 9BN      -0.593100
     25 NAV          1.3740     1.1000     1.7100 ns         1 9BN      -0.501900
     26 CAR          2.3960     2.0760     1.3360 c3         1 9BN       0.154300
     27 CBC          3.7120     1.3910     0.9990 ca         1 9BN      -0.086300
     28 CAK          4.6610     1.1390     2.0080 ca         1 9BN      -0.098000
     29 CAM          5.8720     0.4970     1.6980 ca         1 9BN      -0.094500
     30 CAL          3.9870     0.9880    -0.3210 ca         1 9BN      -0.098000
     31 CAN          5.1990     0.3470    -0.6300 ca         1 9BN      -0.094500
     32 CBE          6.1550     0.1060     0.3760 ca         1 9BN      -0.009000
     33 CBF          7.4140    -0.5700     0.0720 cc         1 9BN      -0.179000
     34 SAX          8.0440    -1.9300     0.9500 ss         1 9BN      -0.033400
     35 CAO          9.4250    -1.8620    -0.1170 cc         1 9BN       0.413300
     36 NAU          9.4340    -0.8870    -1.0240 nd         1 9BN      -0.637000
     37 CBD          8.2780    -0.1270    -0.9110 cd         1 9BN       0.298300
     38 CAB          8.1000     1.0620    -1.8180 c3         1 9BN      -0.121400
     39 H1          -8.1720    -0.1900     2.1000 hc         1 9BN       0.090200
     40 H2          -9.2810     1.0880     1.4060 hc         1 9BN       0.090200
     41 H3          -7.4410     2.7900     1.5840 hc         1 9BN       0.090200
     42 H4          -6.3340     1.5160     2.2890 hc         1 9BN       0.090200
     43 H5          -8.5260    -0.1560    -1.9240 hc         1 9BN       0.066367
     44 H6          -9.7390     0.6660    -1.0550 hc         1 9BN       0.066367
     45 H7          -9.1660     1.3960    -2.6110 hc         1 9BN       0.066367
     46 H8          -4.8920     1.3410     0.0440 hn         1 9BN       0.327500
     47 H9          -4.0400    -1.5100    -0.1570 h1         1 9BN       0.072700
     48 H10         -5.5340    -0.1370    -2.6870 hc         1 9BN       0.041589
     49 H11         -4.4470    -0.8820    -3.8610 hc         1 9BN       0.041589
     50 H12         -5.0490    -1.8350    -2.4940 hc         1 9BN       0.041589
     51 H13         -2.1660     1.3720    -1.8450 hc         1 9BN       0.041589
     52 H14         -2.8650     1.0880    -3.4440 hc         1 9BN       0.041589
     53 H15         -3.8720     1.7540    -2.1500 hc         1 9BN       0.041589
     54 H16         -2.5440    -2.3970    -2.0400 hc         1 9BN       0.041589
     55 H17         -2.0880    -1.3370    -3.3790 hc         1 9BN       0.041589
     56 H18         -1.3730    -1.0800    -1.7880 hc         1 9BN       0.041589
     57 H19         -2.8840    -2.6110     1.4150 h1         1 9BN       0.058700
     58 H20         -1.7990    -2.8980     0.0360 h1         1 9BN       0.058700
     59 H21         -0.4510    -3.9100     1.7340 h1         1 9BN       0.050700
     60 H22         -1.7920    -3.5160     3.5100 ho         1 9BN       0.451000
     61 H23          1.1750    -1.8810     2.3930 hc         1 9BN       0.071200
     62 H24          0.8380    -2.1180     0.6780 hc         1 9BN       0.071200
     63 H25         -0.6250    -0.1390     2.5870 h1         1 9BN       0.078700
     64 H26          1.3320     0.7930     2.6740 hn         1 9BN       0.320500
     65 H27          2.0490     2.6660     0.4770 h1         1 9BN       0.058700
     66 H28          2.5430     2.7690     2.1740 h1         1 9BN       0.058700
     67 H29          4.4590     1.4370     3.0350 ha         1 9BN       0.113500
     68 H30          6.5970     0.3090     2.4870 ha         1 9BN       0.117500
     69 H31          3.2570     1.1640    -1.1080 ha         1 9BN       0.113500
     70 H32          5.3870     0.0260    -1.6510 ha         1 9BN       0.117500
     71 H33         10.2140    -2.5940     0.0020 h5         1 9BN       0.052100
     72 H34          7.4930     0.8000    -2.6920 hc         1 9BN       0.051367
     73 H35          7.6070     1.8900    -1.2960 hc         1 9BN       0.051367
     74 H36          9.0650     1.4330    -2.1820 hc         1 9BN       0.051367
@<TRIPOS>BOND
     1     1     2 1   
     2     1     3 1   
     3     1    39 1   
     4     1    40 1   
     5     2     3 1   
     6     2    41 1   
     7     2    42 1   
     8     3     4 1   
     9     3     7 1   
    10     4     5 2   
    11     4     6 1   
    12     6    43 1   
    13     6    44 1   
    14     6    45 1   
    15     7     8 2   
    16     7     9 1   
    17     9    10 1   
    18     9    46 1   
    19    10    11 1   
    20    10    15 1   
    21    10    47 1   
    22    11    12 1   
    23    11    13 1   
    24    11    14 1   
    25    12    48 1   
    26    12    49 1   
    27    12    50 1   
    28    13    51 1   
    29    13    52 1   
    30    13    53 1   
    31    14    54 1   
    32    14    55 1   
    33    14    56 1   
    34    15    16 2   
    35    15    17 1   
    36    17    18 1   
    37    17    22 1   
    38    18    19 1   
    39    18    57 1   
    40    18    58 1   
    41    19    20 1   
    42    19    21 1   
    43    19    59 1   
    44    20    60 1   
    45    21    22 1   
    46    21    61 1   
    47    21    62 1   
    48    22    23 1   
    49    22    63 1   
    50    23    24 2   
    51    23    25 1   
    52    25    26 1   
    53    25    64 1   
    54    26    27 1   
    55    26    65 1   
    56    26    66 1   
    57    27    28 ar  
    58    27    30 ar  
    59    28    29 ar  
    60    28    67 1   
    61    29    32 ar  
    62    29    68 1   
    63    30    31 ar  
    64    30    69 1   
    65    31    32 ar  
    66    31    70 1   
    67    32    33 1   
    68    33    34 1   
    69    33    37 2   
    70    34    35 1   
    71    35    36 2   
    72    35    71 1   
    73    36    37 1   
    74    37    38 1   
    75    38    72 1   
    76    38    73 1   
    77    38    74 1   
@<TRIPOS>SUBSTRUCTURE
     1 9BN         1 TEMP              0 ****  ****    0 ROOT
