@<TRIPOS>MOLECULE
9BO
   54    54     1     0     0
SMALL
bcc


@<TRIPOS>ATOM
      1 CAA         -7.0780     2.7610     0.0610 c3         1 9BO      -0.157100
      2 CAR         -6.9590     1.2750    -0.1170 c          1 9BO       0.646100
      3 OAG         -7.8160     0.4780     0.1750 o          1 9BO      -0.544000
      4 OAQ         -5.7770     0.9420    -0.6190 os         1 9BO      -0.430900
      5 CBA         -5.4610    -0.4520    -0.8340 c3         1 9BO       0.193300
      6 CAE         -6.0110    -0.9040    -2.1780 c3         1 9BO      -0.111100
      7 CAT         -3.9610    -0.5700    -0.7350 c2         1 9BO      -0.117400
      8 CAC         -3.1540     0.2870    -1.6660 c3         1 9BO      -0.048900
      9 CAL         -3.4470    -1.4340     0.1430 c2         1 9BO      -0.154200
     10 CAN         -2.0060    -1.7350     0.4030 c3         1 9BO      -0.039200
     11 CAO         -1.5790    -1.2460     1.7960 c3         1 9BO      -0.037200
     12 CAS         -0.1350    -1.5440     2.1090 c2         1 9BO      -0.113400
     13 CAB          0.1960    -2.9950     2.2890 c3         1 9BO      -0.051900
     14 CAM          0.7410    -0.5410     2.2000 c2         1 9BO      -0.162200
     15 CAP          2.2170    -0.6160     2.4690 c3         1 9BO       0.033100
     16 CAZ          3.0020    -0.1530     1.2670 ca         1 9BO      -0.187300
     17 CAW          3.2990     1.1940     1.0770 ca         1 9BO       0.271100
     18 OAI          2.8890     2.0470     2.0070 oh         1 9BO      -0.501100
     19 CAY          4.0100     1.6490    -0.0650 ca         1 9BO      -0.358600
     20 CAK          4.2980     3.0600    -0.1780 c          1 9BO       0.605500
     21 OAF          3.9550     3.9010     0.6500 o          1 9BO      -0.575100
     22 CAU          4.4200     0.7240    -1.0520 ca         1 9BO       0.081700
     23 CAD          5.1710     1.1120    -2.2920 c3         1 9BO      -0.064800
     24 CAX          4.1070    -0.6040    -0.8490 ca         1 9BO      -0.146600
     25 CLA          4.5830    -1.8080    -2.0120 cl         1 9BO      -0.116400
     26 CAV          3.4020    -1.0510     0.2830 ca         1 9BO       0.242100
     27 OAH          3.0940    -2.3320     0.4590 oh         1 9BO      -0.473100
     28 H1          -8.0980     3.0320     0.3160 hc         1 9BO       0.068033
     29 H2          -6.4180     3.0900     0.8650 hc         1 9BO       0.068033
     30 H3          -6.7770     3.2910    -0.8420 hc         1 9BO       0.068033
     31 H4          -5.9190    -1.0470    -0.0410 h1         1 9BO       0.064700
     32 H5          -5.7440    -1.9480    -2.3430 hc         1 9BO       0.048033
     33 H6          -7.0970    -0.8320    -2.2060 hc         1 9BO       0.048033
     34 H7          -5.6060    -0.3170    -3.0020 hc         1 9BO       0.048033
     35 H8          -3.3480     1.3470    -1.4930 hc         1 9BO       0.043033
     36 H9          -2.0840     0.1290    -1.5540 hc         1 9BO       0.043033
     37 H10         -3.4040     0.0890    -2.7100 hc         1 9BO       0.043033
     38 H11         -4.1430    -1.9840     0.7730 ha         1 9BO       0.117000
     39 H12         -1.8560    -2.8170     0.3350 hc         1 9BO       0.048700
     40 H13         -1.3550    -1.2840    -0.3470 hc         1 9BO       0.048700
     41 H14         -1.7580    -0.1700     1.8580 hc         1 9BO       0.046200
     42 H15         -2.2220    -1.7160     2.5490 hc         1 9BO       0.046200
     43 H16          0.0010    -3.5600     1.3740 hc         1 9BO       0.038700
     44 H17          1.2320    -3.1740     2.5620 hc         1 9BO       0.038700
     45 H18         -0.4380    -3.4340     3.0630 hc         1 9BO       0.038700
     46 H19          0.3640     0.4680     2.0470 ha         1 9BO       0.121000
     47 H20          2.4590     0.0250     3.3200 hc         1 9BO       0.061700
     48 H21          2.5230    -1.6210     2.7550 hc         1 9BO       0.061700
     49 H22          3.1770     2.9540     1.7390 ho         1 9BO       0.483000
     50 H23          4.8620     3.3960    -1.0540 h4         1 9BO       0.007200
     51 H24          6.1760     0.6870    -2.2760 hc         1 9BO       0.057700
     52 H25          4.6710     0.7250    -3.1790 hc         1 9BO       0.057700
     53 H26          5.2740     2.1830    -2.4260 hc         1 9BO       0.057700
     54 H27          3.4210    -2.8780    -0.2690 ho         1 9BO       0.446000
@<TRIPOS>BOND
     1     1     2 1   
     2     1    28 1   
     3     1    29 1   
     4     1    30 1   
     5     2     3 2   
     6     2     4 1   
     7     4     5 1   
     8     5     6 1   
     9     5     7 1   
    10     5    31 1   
    11     6    32 1   
    12     6    33 1   
    13     6    34 1   
    14     7     8 1   
    15     7     9 2   
    16     8    35 1   
    17     8    36 1   
    18     8    37 1   
    19     9    10 1   
    20     9    38 1   
    21    10    11 1   
    22    10    39 1   
    23    10    40 1   
    24    11    12 1   
    25    11    41 1   
    26    11    42 1   
    27    12    13 1   
    28    12    14 2   
    29    13    43 1   
    30    13    44 1   
    31    13    45 1   
    32    14    15 1   
    33    14    46 1   
    34    15    16 1   
    35    15    47 1   
    36    15    48 1   
    37    16    17 ar  
    38    16    26 ar  
    39    17    18 1   
    40    17    19 ar  
    41    18    49 1   
    42    19    20 1   
    43    19    22 ar  
    44    20    21 2   
    45    20    50 1   
    46    22    23 1   
    47    22    24 ar  
    48    23    51 1   
    49    23    52 1   
    50    23    53 1   
    51    24    25 1   
    52    24    26 ar  
    53    26    27 1   
    54    27    54 1   
@<TRIPOS>SUBSTRUCTURE
     1 9BO         1 TEMP              0 ****  ****    0 ROOT
