@<TRIPOS>MOLECULE
9BO
   54    54     1     0     0
SMALL
No Charge or Current Charge


@<TRIPOS>ATOM
      1 CAA         -7.1240     2.8410    -0.1480 c3         1 9BO      -0.157100
      2 CAR         -7.0950     1.3340    -0.3600 c          1 9BO       0.597100
      3 OAG         -8.0900     0.6240    -0.2990 o          1 9BO      -0.495000
      4 OAQ         -5.8150     0.8800    -0.5420 os         1 9BO      -0.454100
      5 CBA         -5.5920    -0.5230    -0.7850 c3         1 9BO       0.216500
      6 CAE         -6.0140    -0.8550    -2.2360 c3         1 9BO      -0.111100
      7 CAT         -4.1170    -0.8180    -0.5050 c2         1 9BO      -0.117400
      8 CAC         -3.1410    -0.0380    -1.3860 c3         1 9BO      -0.048900
      9 CAL         -3.7440    -1.6910     0.4540 c2         1 9BO      -0.204200
     10 CAN         -2.3330    -2.1060     0.8320 c3         1 9BO      -0.039200
     11 CAO         -1.7160    -1.1710     1.8950 c3         1 9BO      -0.037200
     12 CAS         -0.2620    -1.4970     2.2060 c2         1 9BO      -0.113400
     13 CAB         -0.1000    -2.7300     3.0870 c3         1 9BO      -0.051900
     14 CAM          0.7510    -0.7390     1.7450 c2         1 9BO      -0.212200
     15 CAP          2.2400    -0.9560     1.9550 c3         1 9BO       0.033100
     16 CAZ          3.0810    -0.2840     0.8580 ca         1 9BO      -0.187300
     17 CAW          3.5150     1.0500     0.9950 ca         1 9BO       0.271100
     18 OAI          3.1770     1.7420     2.1180 oh         1 9BO      -0.540100
     19 CAY          4.2840     1.6800    -0.0100 ca         1 9BO      -0.358600
     20 CAK          4.7380     3.1160     0.1610 c          1 9BO       0.605500
     21 OAF          4.4770     3.7750     1.1630 o          1 9BO      -0.575100
     22 CAU          4.6260     0.9580    -1.1860 ca         1 9BO       0.081700
     23 CAD          5.4640     1.6270    -2.2850 c3         1 9BO      -0.064800
     24 CAX          4.1790    -0.3790    -1.3280 ca         1 9BO      -0.055000
     25 ClA          4.5520    -1.3420    -2.7720 cl         1 9BO      -0.208000
     26 CAV          3.4140    -0.9860    -0.3150 ca         1 9BO       0.242100
     27 OAH          2.9930    -2.2750    -0.4890 oh         1 9BO      -0.512100
     28 H1          -8.1320     3.2200     0.0510 hc         1 9BO       0.068033
     29 H2          -6.4260     3.0980     0.6570 hc         1 9BO       0.068033
     30 H3          -6.6670     3.3280    -1.0160 hc         1 9BO       0.068033
     31 H4          -6.2010    -1.1300    -0.1010 h1         1 9BO       0.064700
     32 H5          -5.7010    -1.8720    -2.4980 hc         1 9BO       0.048033
     33 H6          -7.1030    -0.8020    -2.3510 hc         1 9BO       0.048033
     34 H7          -5.5600    -0.1590    -2.9510 hc         1 9BO       0.048033
     35 H8          -3.3430     1.0390    -1.3530 hc         1 9BO       0.043033
     36 H9          -2.0980    -0.1650    -1.0780 hc         1 9BO       0.043033
     37 H10         -3.2050    -0.3570    -2.4320 hc         1 9BO       0.043033
     38 H11         -4.5090    -2.2000     1.0450 ha         1 9BO       0.167000
     39 H12         -2.3450    -3.1340     1.2130 hc         1 9BO       0.048700
     40 H13         -1.6830    -2.1240    -0.0500 hc         1 9BO       0.048700
     41 H14         -1.7940    -0.1410     1.5250 hc         1 9BO       0.046200
     42 H15         -2.3220    -1.2040     2.8080 hc         1 9BO       0.046200
     43 H16         -0.4110    -3.6390     2.5590 hc         1 9BO       0.038700
     44 H17          0.9320    -2.8840     3.4160 hc         1 9BO       0.038700
     45 H18         -0.7110    -2.6470     3.9940 hc         1 9BO       0.038700
     46 H19          0.5290     0.1330     1.1290 ha         1 9BO       0.171000
     47 H20          2.5240    -0.5760     2.9430 hc         1 9BO       0.061700
     48 H21          2.4700    -2.0270     2.0000 hc         1 9BO       0.061700
     49 H22          3.5810     2.6410     2.0130 ho         1 9BO       0.522000
     50 H23          5.3260     3.5760    -0.6600 h4         1 9BO       0.007200
     51 H24          6.4290     1.9640    -1.8880 hc         1 9BO       0.057700
     52 H25          5.6940     0.9750    -3.1320 hc         1 9BO       0.057700
     53 H26          4.9420     2.4980    -2.6970 hc         1 9BO       0.057700
     54 H27          3.3260    -2.5690    -1.3630 ho         1 9BO       0.485000
@<TRIPOS>BOND
     1     1     2 1   
     2     1    28 1   
     3     1    29 1   
     4     1    30 1   
     5     2     3 2   
     6     2     4 1   
     7     4     5 1   
     8     5     6 1   
     9     5     7 1   
    10     5    31 1   
    11     6    32 1   
    12     6    33 1   
    13     6    34 1   
    14     7     8 1   
    15     7     9 2   
    16     8    35 1   
    17     8    36 1   
    18     8    37 1   
    19     9    10 1   
    20     9    38 1   
    21    10    11 1   
    22    10    39 1   
    23    10    40 1   
    24    11    12 1   
    25    11    41 1   
    26    11    42 1   
    27    12    13 1   
    28    12    14 2   
    29    13    43 1   
    30    13    44 1   
    31    13    45 1   
    32    14    15 1   
    33    14    46 1   
    34    15    16 1   
    35    15    47 1   
    36    15    48 1   
    37    16    17 ar  
    38    16    26 ar  
    39    17    18 1   
    40    17    19 ar  
    41    18    49 1   
    42    19    20 1   
    43    19    22 ar  
    44    20    21 2   
    45    20    50 1   
    46    22    23 1   
    47    22    24 ar  
    48    23    51 1   
    49    23    52 1   
    50    23    53 1   
    51    24    25 1   
    52    24    26 ar  
    53    26    27 1   
    54    27    54 1   
@<TRIPOS>SUBSTRUCTURE
     1 9BO         1 TEMP              0 ****  ****    0 ROOT
