@<TRIPOS>MOLECULE
9BP
   31    30     1     0     0
SMALL
bcc


@<TRIPOS>ATOM
      1 O1          -1.8690     0.5950    -1.2710 o          1 9BP      -0.604100
      2 C6          -3.6670     0.2460     1.0720 c3         1 9BP      -0.075600
      3 C7          -3.8070    -1.5940    -0.6500 c3         1 9BP      -0.075600
      4 C9           0.8010     1.3420    -0.3880 c          1 9BP       0.942600
      5 C8           0.9850    -0.7000    -1.9410 c3         1 9BP      -0.067100
      6 N1          -0.5200    -0.7120    -0.0180 ns         1 9BP      -0.535900
      7 C5          -2.9060    -0.8540     0.3350 c3         1 9BP      -0.145700
      8 C4          -1.7160    -0.2490    -0.3950 c          1 9BP       0.671100
      9 C3           0.7570    -0.2120    -0.5140 c3         1 9BP      -0.009600
     10 C2           1.8190    -0.7960     0.4350 c3         1 9BP      -0.068400
     11 C1           3.2550    -0.3720     0.1660 c3         1 9BP       0.149800
     12 N            4.1490    -1.0560     1.0930 n8         1 9BP      -0.902800
     13 H10         -4.4890    -0.1820     1.6460 hc         1 9BP       0.032200
     14 H12         -3.0190     0.7830     1.7670 hc         1 9BP       0.032200
     15 H11         -4.0870     0.9710     0.3730 hc         1 9BP       0.032200
     16 H15         -4.6550    -2.0370    -0.1270 hc         1 9BP       0.032200
     17 H13         -4.1980    -0.9180    -1.4110 hc         1 9BP       0.032200
     18 H14         -3.2710    -2.3990    -1.1560 hc         1 9BP       0.032200
     19 H16          0.2160    -0.3210    -2.6120 hc         1 9BP       0.024367
     20 H17          1.9480    -0.3760    -2.3320 hc         1 9BP       0.024367
     21 H18          0.9590    -1.7920    -1.9770 hc         1 9BP       0.024367
     22 H8          -0.4980    -1.3970     0.7200 hn         1 9BP       0.283500
     23 H9          -2.5470    -1.5730     1.0780 hc         1 9BP       0.032700
     24 H7           1.5560    -0.5120     1.4590 hc         1 9BP       0.028200
     25 H6           1.7720    -1.8900     0.3870 hc         1 9BP       0.028200
     26 H5           3.5450    -0.6580    -0.8480 h1         1 9BP       0.045700
     27 H4           3.3370     0.7210     0.2160 h1         1 9BP       0.045700
     28 H3           5.1050    -0.7870     0.8960 hn         1 9BP       0.321300
     29 H2           3.9670    -0.7290     2.0340 hn         1 9BP       0.321300
     30 O2           1.3380     1.9670    -1.3220 o          1 9BP      -0.825300
     31 OXT          0.3510     1.8180     0.6690 o          1 9BP      -0.825300
@<TRIPOS>BOND
     1     1     8 2   
     2     2     7 1   
     3     2    13 1   
     4     2    14 1   
     5     2    15 1   
     6     3     7 1   
     7     3    16 1   
     8     3    17 1   
     9     3    18 1   
    10     4     9 1   
    11     4    30 1   
    12     4    31 1   
    13     5     9 1   
    14     5    19 1   
    15     5    20 1   
    16     5    21 1   
    17     6     8 1   
    18     6     9 1   
    19     6    22 1   
    20     7     8 1   
    21     7    23 1   
    22     9    10 1   
    23    10    11 1   
    24    10    24 1   
    25    10    25 1   
    26    11    12 1   
    27    11    26 1   
    28    11    27 1   
    29    12    28 1   
    30    12    29 1   
@<TRIPOS>SUBSTRUCTURE
     1 9BP         1 TEMP              0 ****  ****    0 ROOT
