@<TRIPOS>MOLECULE
9BR
   58    58     1     0     0
SMALL
No Charge or Current Charge


@<TRIPOS>ATOM
      1 CAA          9.7410     1.1810     0.8380 c3         1 9BR      -0.055900
      2 CAS          8.3220     0.8920     0.3830 c2         1 9BR      -0.112400
      3 CAB          8.2770     0.2850    -1.0120 c3         1 9BR      -0.055900
      4 CAK          7.2500     1.1530     1.1550 c2         1 9BR      -0.224200
      5 CAN          5.7870     0.9370     0.8080 c3         1 9BR      -0.035200
      6 CAQ          5.3050    -0.4840     1.1700 c3         1 9BR      -0.038200
      7 CAT          3.8680    -0.7550     0.7460 c2         1 9BR      -0.112400
      8 CAC          2.8410    -0.1440     1.6920 c3         1 9BR      -0.055900
      9 CAL          3.5750    -1.4780    -0.3520 c2         1 9BR      -0.221200
     10 CAO          2.2000    -1.8550    -0.8730 c3         1 9BR      -0.036200
     11 CAR          1.6020    -0.7610    -1.7840 c3         1 9BR      -0.037200
     12 CAU          0.1790    -1.0670    -2.2310 c2         1 9BR      -0.110400
     13 CAD          0.1090    -2.1250    -3.3260 c3         1 9BR      -0.050900
     14 CAM         -0.8850    -0.4330    -1.7010 c2         1 9BR      -0.215200
     15 CAP         -2.3510    -0.6500    -2.0320 c3         1 9BR       0.033100
     16 CBA         -3.2730    -0.2020    -0.8860 ca         1 9BR      -0.187300
     17 CAX         -3.7480     1.1230    -0.8160 ca         1 9BR       0.273100
     18 OAH         -3.3770     2.0090    -1.7800 oh         1 9BR      -0.538100
     19 CAZ         -4.5920     1.5480     0.2360 ca         1 9BR      -0.365600
     20 CAJ         -5.0880     2.9780     0.2900 c          1 9BR       0.604500
     21 OAF         -4.7990     3.8090    -0.5670 o          1 9BR      -0.575100
     22 CAV         -4.9680     0.6220     1.2480 ca         1 9BR       0.079700
     23 CAE         -5.8870     1.0660     2.3940 c3         1 9BR      -0.067800
     24 CAY         -4.4810    -0.7070     1.1820 ca         1 9BR      -0.047000
     25 ClA         -4.8940    -1.9160     2.4150 cl         1 9BR      -0.207000
     26 CAW         -3.6420    -1.1070     0.1260 ca         1 9BR       0.240100
     27 OAG         -3.1830    -2.3950     0.0990 oh         1 9BR      -0.511100
     28 H1          10.2370     1.8850     0.1600 hc         1 9BR       0.038367
     29 H2           9.7640     1.6200     1.8430 hc         1 9BR       0.038367
     30 H3          10.3410     0.2640     0.8670 hc         1 9BR       0.038367
     31 H4           8.8790    -0.6310    -1.0590 hc         1 9BR       0.038367
     32 H5           7.2640     0.0150    -1.3280 hc         1 9BR       0.038367
     33 H6           8.6770     0.9830    -1.7560 hc         1 9BR       0.038367
     34 H7           7.3940     1.5860     2.1460 ha         1 9BR       0.164000
     35 H8           5.1750     1.6780     1.3360 hc         1 9BR       0.045200
     36 H9           5.6100     1.1140    -0.2590 hc         1 9BR       0.045200
     37 H10          5.9760    -1.2020     0.6830 hc         1 9BR       0.044700
     38 H11          5.4250    -0.6490     2.2480 hc         1 9BR       0.044700
     39 H12          2.9490    -0.5520     2.7040 hc         1 9BR       0.038700
     40 H13          2.9580     0.9430     1.7590 hc         1 9BR       0.038700
     41 H14          1.8080    -0.3290     1.3780 hc         1 9BR       0.038700
     42 H15          4.3870    -1.8730    -0.9660 ha         1 9BR       0.164000
     43 H16          2.2670    -2.7980    -1.4280 hc         1 9BR       0.044700
     44 H17          1.5090    -2.0470    -0.0430 hc         1 9BR       0.044700
     45 H18          1.6220     0.1870    -1.2320 hc         1 9BR       0.045200
     46 H19          2.2550    -0.6130    -2.6530 hc         1 9BR       0.045200
     47 H20          0.4270    -3.1050    -2.9530 hc         1 9BR       0.038033
     48 H21         -0.9000    -2.2450    -3.7350 hc         1 9BR       0.038033
     49 H22          0.7600    -1.8620    -4.1680 hc         1 9BR       0.038033
     50 H23         -0.7270     0.3200    -0.9270 ha         1 9BR       0.170000
     51 H24         -2.5960    -0.1100    -2.9550 hc         1 9BR       0.061700
     52 H25         -2.5390    -1.7020    -2.2750 hc         1 9BR       0.061700
     53 H26         -3.8190     2.8640    -1.5450 ho         1 9BR       0.521000
     54 H27         -5.7360     3.2720     1.1420 h4         1 9BR       0.007200
     55 H28         -6.8420     1.4410     2.0070 hc         1 9BR       0.058033
     56 H29         -6.1370     0.2720     3.1020 hc         1 9BR       0.058033
     57 H30         -5.4200     1.8670     2.9800 hc         1 9BR       0.058033
     58 H31         -3.5500    -2.8470     0.8880 ho         1 9BR       0.485000
@<TRIPOS>BOND
     1     1     2 1   
     2     1    28 1   
     3     1    29 1   
     4     1    30 1   
     5     2     3 1   
     6     2     4 2   
     7     3    31 1   
     8     3    32 1   
     9     3    33 1   
    10     4     5 1   
    11     4    34 1   
    12     5     6 1   
    13     5    35 1   
    14     5    36 1   
    15     6     7 1   
    16     6    37 1   
    17     6    38 1   
    18     7     8 1   
    19     7     9 2   
    20     8    39 1   
    21     8    40 1   
    22     8    41 1   
    23     9    10 1   
    24     9    42 1   
    25    10    11 1   
    26    10    43 1   
    27    10    44 1   
    28    11    12 1   
    29    11    45 1   
    30    11    46 1   
    31    12    13 1   
    32    12    14 2   
    33    13    47 1   
    34    13    48 1   
    35    13    49 1   
    36    14    15 1   
    37    14    50 1   
    38    15    16 1   
    39    15    51 1   
    40    15    52 1   
    41    16    17 ar  
    42    16    26 ar  
    43    17    18 1   
    44    17    19 ar  
    45    18    53 1   
    46    19    20 1   
    47    19    22 ar  
    48    20    21 2   
    49    20    54 1   
    50    22    23 1   
    51    22    24 ar  
    52    23    55 1   
    53    23    56 1   
    54    23    57 1   
    55    24    25 1   
    56    24    26 ar  
    57    26    27 1   
    58    27    58 1   
@<TRIPOS>SUBSTRUCTURE
     1 9BR         1 TEMP              0 ****  ****    0 ROOT
