@<TRIPOS>MOLECULE
9BR
   58    58     1     0     0
SMALL
abcg2


@<TRIPOS>ATOM
      1 CAA          9.6700     1.0440     0.7920 c3         1 9BR      -0.055900
      2 CAS          8.2670     0.9120     0.2740 c2         1 9BR      -0.112400
      3 CAB          8.1680     0.7430    -1.2140 c3         1 9BR      -0.055900
      4 CAK          7.2210     0.9520     1.1030 c2         1 9BR      -0.224200
      5 CAN          5.7690     0.8320     0.7580 c3         1 9BR      -0.035200
      6 CAQ          5.1890    -0.5230     1.1930 c3         1 9BR      -0.038200
      7 CAT          3.7060    -0.6410     0.9580 c2         1 9BR      -0.112400
      8 CAC          2.8460     0.2140     1.8420 c3         1 9BR      -0.055900
      9 CAL          3.2340    -1.4560     0.0110 c2         1 9BR      -0.221200
     10 CAO          1.8070    -1.6730    -0.3870 c3         1 9BR      -0.036200
     11 CAR          1.4700    -0.9570    -1.7060 c3         1 9BR      -0.037200
     12 CAU          0.0580    -1.2060    -2.1640 c2         1 9BR      -0.110400
     13 CAD         -0.2280    -2.6020    -2.6340 c3         1 9BR      -0.050900
     14 CAM         -0.8410    -0.2210    -2.1120 c2         1 9BR      -0.215200
     15 CAP         -2.3010    -0.2800    -2.4600 c3         1 9BR       0.033100
     16 CBA         -3.1460    -0.0200    -1.2380 ca         1 9BR      -0.187300
     17 CAX         -3.5930     1.2610    -0.9200 ca         1 9BR       0.273100
     18 OAH         -3.2700     2.2510    -1.7420 oh         1 9BR      -0.538100
     19 CAZ         -4.3640     1.5050     0.2430 ca         1 9BR      -0.365600
     20 CAJ         -4.8100     2.8510     0.5150 c          1 9BR       0.604500
     21 OAF         -4.5590     3.8170    -0.2020 o          1 9BR      -0.575100
     22 CAV         -4.6870     0.4460     1.1220 ca         1 9BR       0.079700
     23 CAE         -5.5080     0.7020     2.3530 c3         1 9BR      -0.067800
     24 CAY         -4.2170    -0.8100     0.8040 ca         1 9BR      -0.047000
     25 CLA         -4.5380    -2.1900     1.8170 cl         1 9BR      -0.207000
     26 CAW         -3.4520    -1.0510    -0.3580 ca         1 9BR       0.240100
     27 OAG         -3.0000    -2.2620    -0.6610 oh         1 9BR      -0.511100
     28 H1          10.1740     1.9030     0.3400 hc         1 9BR       0.038367
     29 H2           9.6990     1.1660     1.8740 hc         1 9BR       0.038367
     30 H3          10.2680     0.1660     0.5340 hc         1 9BR       0.038367
     31 H4           8.7960    -0.0890    -1.5440 hc         1 9BR       0.038367
     32 H5           7.1560     0.5510    -1.5640 hc         1 9BR       0.038367
     33 H6           8.5390     1.6320    -1.7310 hc         1 9BR       0.038367
     34 H7           7.4280     1.0630     2.1650 ha         1 9BR       0.164000
     35 H8           5.2250     1.6380     1.2590 hc         1 9BR       0.045200
     36 H9           5.5960     0.9670    -0.3120 hc         1 9BR       0.045200
     37 H10          5.7180    -1.3160     0.6570 hc         1 9BR       0.044700
     38 H11          5.4020    -0.6710     2.2580 hc         1 9BR       0.044700
     39 H12          3.0760     0.0320     2.8950 hc         1 9BR       0.038700
     40 H13          3.0300     1.2760     1.6650 hc         1 9BR       0.038700
     41 H14          1.7810     0.0430     1.7000 hc         1 9BR       0.038700
     42 H15          3.9600    -2.0170    -0.5750 ha         1 9BR       0.164000
     43 H16          1.6310    -2.7460    -0.5000 hc         1 9BR       0.044700
     44 H17          1.1160    -1.3270     0.3850 hc         1 9BR       0.044700
     45 H18          1.6370     0.1140    -1.5690 hc         1 9BR       0.045200
     46 H19          2.1740    -1.2900    -2.4770 hc         1 9BR       0.045200
     47 H20         -0.1930    -3.3110    -1.8050 hc         1 9BR       0.038033
     48 H21         -1.2030    -2.7060    -3.1060 hc         1 9BR       0.038033
     49 H22          0.5280    -2.9220    -3.3550 hc         1 9BR       0.038033
     50 H23         -0.5070     0.7480    -1.7490 ha         1 9BR       0.170000
     51 H24         -2.5260     0.4720    -3.2180 hc         1 9BR       0.061700
     52 H25         -2.5730    -1.2400    -2.8960 hc         1 9BR       0.061700
     53 H26         -3.6670     3.0830    -1.3860 ho         1 9BR       0.521000
     54 H27         -5.4090     3.0080     1.4200 h4         1 9BR       0.007200
     55 H28         -6.4650     1.1580     2.1010 hc         1 9BR       0.058033
     56 H29         -5.7210    -0.2110     2.8990 hc         1 9BR       0.058033
     57 H30         -4.9910     1.3770     3.0360 hc         1 9BR       0.058033
     58 H31         -3.2660    -2.9180    -0.0030 ho         1 9BR       0.485000
@<TRIPOS>BOND
     1     1     2 1   
     2     1    28 1   
     3     1    29 1   
     4     1    30 1   
     5     2     3 1   
     6     2     4 2   
     7     3    31 1   
     8     3    32 1   
     9     3    33 1   
    10     4     5 1   
    11     4    34 1   
    12     5     6 1   
    13     5    35 1   
    14     5    36 1   
    15     6     7 1   
    16     6    37 1   
    17     6    38 1   
    18     7     8 1   
    19     7     9 2   
    20     8    39 1   
    21     8    40 1   
    22     8    41 1   
    23     9    10 1   
    24     9    42 1   
    25    10    11 1   
    26    10    43 1   
    27    10    44 1   
    28    11    12 1   
    29    11    45 1   
    30    11    46 1   
    31    12    13 1   
    32    12    14 2   
    33    13    47 1   
    34    13    48 1   
    35    13    49 1   
    36    14    15 1   
    37    14    50 1   
    38    15    16 1   
    39    15    51 1   
    40    15    52 1   
    41    16    17 ar  
    42    16    26 ar  
    43    17    18 1   
    44    17    19 ar  
    45    18    53 1   
    46    19    20 1   
    47    19    22 ar  
    48    20    21 2   
    49    20    54 1   
    50    22    23 1   
    51    22    24 ar  
    52    23    55 1   
    53    23    56 1   
    54    23    57 1   
    55    24    25 1   
    56    24    26 ar  
    57    26    27 1   
    58    27    58 1   
@<TRIPOS>SUBSTRUCTURE
     1 9BR         1 TEMP              0 ****  ****    0 ROOT
