@<TRIPOS>MOLECULE
9BS
   19    20     1     0     0
SMALL
abcg2


@<TRIPOS>ATOM
      1 N3           1.3960     1.1880    -0.0450 nb         1 9BS      -0.155000
      2 C4          -0.7070     0.0220     0.0200 cp         1 9BS       0.289000
      3 N2           1.3850    -1.1650     0.0800 nb         1 9BS      -0.155000
      4 C7           2.7100    -1.1630     0.0530 ca         1 9BS       0.107900
      5 C6           0.7810     0.0140     0.0840 cp         1 9BS       0.080000
      6 C9           2.7190     1.1800    -0.0900 ca         1 9BS       0.107900
      7 C8           3.4480     0.0050    -0.0460 ca         1 9BS      -0.217000
      8 C1          -2.8010     1.1860     0.0180 ca         1 9BS      -0.087000
      9 C2          -3.4400    -0.0490    -0.0060 ca         1 9BS      -0.150000
     10 C3          -2.6470    -1.1870    -0.0580 ca         1 9BS       0.327900
     11 N1          -1.3160    -1.1580    -0.0450 nb         1 9BS      -0.628000
     12 C5          -1.4180     1.2230    -0.0040 ca         1 9BS      -0.120000
     13 H1           3.1980    -2.1320     0.0450 h4         1 9BS       0.026600
     14 H2           3.2130     2.1440    -0.1440 h4         1 9BS       0.026600
     15 H3           4.5270     0.0010    -0.0940 ha         1 9BS       0.136000
     16 H4          -3.3770     2.1020     0.0430 ha         1 9BS       0.121000
     17 H5          -4.5160    -0.1330    -0.0110 ha         1 9BS       0.124000
     18 H6          -3.1070    -2.1690    -0.1020 h4         1 9BS       0.022100
     19 H7          -0.8870     2.1630     0.0090 ha         1 9BS       0.143000
@<TRIPOS>BOND
     1     1     5 ar  
     2     1     6 ar  
     3     2     5 1   
     4     2    11 ar  
     5     2    12 ar  
     6     3     4 ar  
     7     3     5 ar  
     8     4     7 ar  
     9     4    13 1   
    10     6     7 ar  
    11     6    14 1   
    12     7    15 1   
    13     8     9 ar  
    14     8    12 ar  
    15     8    16 1   
    16     9    10 ar  
    17     9    17 1   
    18    10    11 ar  
    19    10    18 1   
    20    12    19 1   
@<TRIPOS>SUBSTRUCTURE
     1 9BS         1 TEMP              0 ****  ****    0 ROOT
