@<TRIPOS>MOLECULE
9BS
   19    20     1     0     0
SMALL
No Charge or Current Charge


@<TRIPOS>ATOM
      1 N3           1.4410     1.2050    -0.0280 nb         1 9BS      -0.155000
      2 C4          -0.7160     0.0230    -0.0120 cp         1 9BS       0.289000
      3 N2           1.4340    -1.1900    -0.0120 nb         1 9BS      -0.155000
      4 C7           2.7820    -1.1950    -0.0170 ca         1 9BS       0.107900
      5 C6           0.8000     0.0110    -0.0180 cp         1 9BS       0.080000
      6 C9           2.7890     1.2030    -0.0330 ca         1 9BS       0.107900
      7 C8           3.5150     0.0020    -0.0280 ca         1 9BS      -0.217000
      8 C1          -2.8650     1.2040    -0.0130 ca         1 9BS      -0.087000
      9 C2          -3.4980    -0.0470    -0.0020 ca         1 9BS      -0.150000
     10 C3          -2.7100    -1.2090     0.0030 ca         1 9BS       0.327900
     11 N1          -1.3570    -1.1760    -0.0020 nb         1 9BS      -0.628000
     12 C5          -1.4610     1.2360    -0.0180 ca         1 9BS      -0.120000
     13 H1           3.2740    -2.1670    -0.0120 h4         1 9BS       0.026600
     14 H2           3.2870     2.1710    -0.0410 h4         1 9BS       0.026600
     15 H3           4.6020    -0.0020    -0.0310 ha         1 9BS       0.136000
     16 H4          -3.4460     2.1250    -0.0170 ha         1 9BS       0.121000
     17 H5          -4.5820    -0.1240     0.0020 ha         1 9BS       0.124000
     18 H6          -3.1730    -2.1950     0.0110 h4         1 9BS       0.022100
     19 H7          -0.9530     2.1970    -0.0260 ha         1 9BS       0.143000
@<TRIPOS>BOND
     1     1     5 ar  
     2     1     6 ar  
     3     2     5 1   
     4     2    11 ar  
     5     2    12 ar  
     6     3     4 ar  
     7     3     5 ar  
     8     4     7 ar  
     9     4    13 1   
    10     6     7 ar  
    11     6    14 1   
    12     7    15 1   
    13     8     9 ar  
    14     8    12 ar  
    15     8    16 1   
    16     9    10 ar  
    17     9    17 1   
    18    10    11 ar  
    19    10    18 1   
    20    12    19 1   
@<TRIPOS>SUBSTRUCTURE
     1 9BS         1 TEMP              0 ****  ****    0 ROOT
