@<TRIPOS>MOLECULE
9BT
   66    68     1     0     0
SMALL
bcc


@<TRIPOS>ATOM
      1 CAA         -8.1750     2.1630     0.1120 c3         1 9BT      -0.122400
      2 CBA         -8.0380     0.7130    -0.2150 cc         1 9BT       0.367600
      3 NAS         -9.1680    -0.0190    -0.4600 nc         1 9BT      -0.637000
      4 CAN         -8.8930    -1.2580    -0.7030 cd         1 9BT       0.414300
      5 SAV         -7.2270    -1.6470    -0.6580 ss         1 9BT      -0.176300
      6 CBC         -6.8690    -0.0000    -0.2780 cd         1 9BT      -0.105400
      7 CBB         -5.4890     0.4430    -0.0810 ca         1 9BT      -0.002000
      8 CAM         -4.5800    -0.3380     0.6400 ca         1 9BT      -0.117500
      9 CAK         -3.2740     0.0810     0.8180 ca         1 9BT      -0.115000
     10 CAL         -5.0440     1.6490    -0.6190 ca         1 9BT      -0.117500
     11 CAJ         -3.7340     2.0680    -0.4290 ca         1 9BT      -0.115000
     12 CAZ         -2.8340     1.2930     0.2890 ca         1 9BT      -0.107300
     13 CAP         -1.4070     1.7360     0.4800 c3         1 9BT       0.144300
     14 NAT         -0.4760     0.8150    -0.1320 ns         1 9BT      -0.562900
     15 C            0.4590     0.1220     0.5340 c          1 9BT       0.674100
     16 O            0.6570     0.2110     1.7340 o          1 9BT      -0.603100
     17 CA           1.2160    -0.8830    -0.3260 c5         1 9BT       0.030700
     18 CB           0.6850    -2.3040    -0.1020 c5         1 9BT      -0.083400
     19 CG           1.9140    -3.1760    -0.2960 c5         1 9BT       0.130100
     20 OD1          2.1400    -3.3040    -1.6810 oh         1 9BT      -0.590800
     21 CD2          2.9960    -2.3480     0.3880 c5         1 9BT       0.069000
     22 N            2.6100    -0.9790     0.0690 n          1 9BT      -0.453800
     23 CAY          3.3780     0.1180    -0.0010 c          1 9BT       0.669100
     24 OAG          2.9250     1.1790    -0.4160 o          1 9BT      -0.620100
     25 CBF          4.8370     0.0320     0.4440 c3         1 9BT       0.050700
     26 CBH          5.0590     0.5590     1.8920 c3         1 9BT      -0.046000
     27 CAC          4.6690     2.0290     2.0420 c3         1 9BT      -0.089433
     28 CAD          4.2370    -0.2800     2.8700 c3         1 9BT      -0.089433
     29 CAB          6.5420     0.3940     2.2290 c3         1 9BT      -0.089433
     30 NAU          5.6280     0.7450    -0.5290 ns         1 9BT      -0.573900
     31 CAW          6.6430     0.1950    -1.2230 c          1 9BT       0.669100
     32 OAE          7.0290    -0.9510    -1.0780 o          1 9BT      -0.577100
     33 CAO          7.2810     1.1520    -2.2160 c3         1 9BT       0.056400
     34 OAH          8.3350     0.4980    -2.8570 oh         1 9BT      -0.559800
     35 H1          -8.2590     2.7700    -0.7910 hc         1 9BT       0.052033
     36 H2          -9.0760     2.3300     0.7010 hc         1 9BT       0.052033
     37 H3          -7.3220     2.5340     0.6780 hc         1 9BT       0.052033
     38 H4          -9.6360    -2.0120    -0.9210 h5         1 9BT       0.053100
     39 H5          -4.9000    -1.2740     1.0820 ha         1 9BT       0.137500
     40 H6          -2.5920    -0.5400     1.3870 ha         1 9BT       0.136500
     41 H7          -5.7130     2.2560    -1.2140 ha         1 9BT       0.137500
     42 H8          -3.4120     3.0090    -0.8600 ha         1 9BT       0.136500
     43 H9          -1.2660     2.7340     0.0620 h1         1 9BT       0.067700
     44 H10         -1.1670     1.7980     1.5410 h1         1 9BT       0.067700
     45 H11         -0.5410     0.6960    -1.1300 hn         1 9BT       0.317500
     46 H12          1.1420    -0.6080    -1.3830 h1         1 9BT       0.077700
     47 H13          0.3280    -2.4230     0.9230 hc         1 9BT       0.072700
     48 H14         -0.1310    -2.5570    -0.7770 hc         1 9BT       0.072700
     49 H15          1.8080    -4.1530     0.1880 h1         1 9BT       0.053700
     50 H16          2.9430    -3.8170    -1.8140 ho         1 9BT       0.411000
     51 H17          2.9810    -2.5250     1.4660 h1         1 9BT       0.062200
     52 H18          3.9930    -2.5900     0.0190 h1         1 9BT       0.062200
     53 H19          5.1810    -1.0010     0.4310 h1         1 9BT       0.085700
     54 H20          3.6040     2.1890     1.8800 hc         1 9BT       0.040367
     55 H21          4.9020     2.3650     3.0550 hc         1 9BT       0.040367
     56 H22          5.2210     2.6760     1.3560 hc         1 9BT       0.040367
     57 H23          4.4910    -1.3400     2.8000 hc         1 9BT       0.040367
     58 H24          4.4440     0.0350     3.8940 hc         1 9BT       0.040367
     59 H25          3.1630    -0.1750     2.7060 hc         1 9BT       0.040367
     60 H26          7.1760     1.0140     1.5930 hc         1 9BT       0.040367
     61 H27          6.7230     0.6920     3.2630 hc         1 9BT       0.040367
     62 H28          6.8660    -0.6430     2.1200 hc         1 9BT       0.040367
     63 H29          5.3340     1.6810    -0.7650 hn         1 9BT       0.328500
     64 H30          6.5020     1.4860    -2.9160 h1         1 9BT       0.034200
     65 H31          7.6090     2.0460    -1.6680 h1         1 9BT       0.034200
     66 H32          8.7180     1.1120    -3.4900 ho         1 9BT       0.406000
@<TRIPOS>BOND
     1     1     2 1   
     2     1    35 1   
     3     1    36 1   
     4     1    37 1   
     5     2     3 1   
     6     2     6 2   
     7     3     4 2   
     8     4     5 1   
     9     4    38 1   
    10     5     6 1   
    11     6     7 1   
    12     7     8 ar  
    13     7    10 ar  
    14     8     9 ar  
    15     8    39 1   
    16     9    12 ar  
    17     9    40 1   
    18    10    11 ar  
    19    10    41 1   
    20    11    12 ar  
    21    11    42 1   
    22    12    13 1   
    23    13    14 1   
    24    13    43 1   
    25    13    44 1   
    26    14    15 1   
    27    14    45 1   
    28    15    16 2   
    29    15    17 1   
    30    17    18 1   
    31    17    22 1   
    32    17    46 1   
    33    18    19 1   
    34    18    47 1   
    35    18    48 1   
    36    19    20 1   
    37    19    21 1   
    38    19    49 1   
    39    20    50 1   
    40    21    22 1   
    41    21    51 1   
    42    21    52 1   
    43    22    23 1   
    44    23    24 2   
    45    23    25 1   
    46    25    26 1   
    47    25    30 1   
    48    25    53 1   
    49    26    27 1   
    50    26    28 1   
    51    26    29 1   
    52    27    54 1   
    53    27    55 1   
    54    27    56 1   
    55    28    57 1   
    56    28    58 1   
    57    28    59 1   
    58    29    60 1   
    59    29    61 1   
    60    29    62 1   
    61    30    31 1   
    62    30    63 1   
    63    31    32 2   
    64    31    33 1   
    65    33    34 1   
    66    33    64 1   
    67    33    65 1   
    68    34    66 1   
@<TRIPOS>SUBSTRUCTURE
     1 9BT         1 TEMP              0 ****  ****    0 ROOT
