@<TRIPOS>MOLECULE
9BT
   66    68     1     0     0
SMALL
No Charge or Current Charge


@<TRIPOS>ATOM
      1 CAA         -7.5900     2.7120    -1.5810 c3         1 9BT      -0.122400
      2 CBA         -7.9050     1.2860    -1.2160 cc         1 9BT       0.302300
      3 NAS         -9.1100     0.8070    -1.6680 nc         1 9BT      -0.637000
      4 CAN         -9.3020    -0.4410    -1.2640 cd         1 9BT       0.414300
      5 SAV         -8.0220    -1.1200    -0.2770 ss         1 9BT      -0.031400
      6 CBC         -7.1600     0.4090    -0.4390 cd         1 9BT      -0.185000
      7 CBB         -5.7820     0.5450     0.1070 ca         1 9BT      -0.002000
      8 CAM         -5.3420    -0.3370     1.1220 ca         1 9BT      -0.099500
      9 CAK         -4.0480    -0.2400     1.6620 ca         1 9BT      -0.097000
     10 CAL         -4.8650     1.5140    -0.3620 ca         1 9BT      -0.099500
     11 CAJ         -3.5700     1.6100     0.1760 ca         1 9BT      -0.097000
     12 CAZ         -3.1550     0.7380     1.1950 ca         1 9BT      -0.107300
     13 CAP         -1.7520     0.8380     1.7730 c3         1 9BT       0.144300
     14 NAT         -0.8280    -0.0270     1.0480 ns         1 9BT      -0.495900
     15 C            0.5010    -0.1820     1.3740 c          1 9BT       0.607100
     16 O            1.0290     0.4050     2.3120 o          1 9BT      -0.603100
     17 CA           1.1650    -1.1850     0.3780 c5         1 9BT       0.030700
     18 CB           0.9390    -2.6330     0.9040 c5         1 9BT      -0.083400
     19 CG           2.0060    -3.4370     0.1220 c5         1 9BT       0.153300
     20 OD1          1.6060    -3.6440    -1.2380 oh         1 9BT      -0.653000
     21 CD2          3.2490    -2.5010     0.2410 c5         1 9BT       0.069000
     22 N            2.6530    -1.1420     0.3280 n          1 9BT      -0.386800
     23 CAY          3.3510     0.0290    -0.0450 c          1 9BT       0.602100
     24 OAG          2.7270     0.9980    -0.4710 o          1 9BT      -0.620100
     25 CBF          4.9100     0.0860     0.1300 c3         1 9BT       0.050700
     26 CBH          5.3800     0.4780     1.5860 c3         1 9BT      -0.046000
     27 CAC          4.8290     1.8750     1.9890 c3         1 9BT      -0.089433
     28 CAD          4.8980    -0.5600     2.6350 c3         1 9BT      -0.089433
     29 CAB          6.9340     0.5230     1.6580 c3         1 9BT      -0.089433
     30 NAU          5.4660     1.0100    -0.8940 ns         1 9BT      -0.506900
     31 CAW          6.5610     0.7550    -1.6940 c          1 9BT       0.602100
     32 OAE          7.1800    -0.3020    -1.6260 o          1 9BT      -0.577100
     33 CAO          6.9230     1.9120    -2.6760 c3         1 9BT       0.079600
     34 OAH          8.0590     1.6380    -3.5340 oh         1 9BT      -0.622000
     35 H1          -6.9210     2.7560    -2.4480 hc         1 9BT       0.052033
     36 H2          -8.4990     3.2670    -1.8400 hc         1 9BT       0.052033
     37 H3          -7.1220     3.2390    -0.7420 hc         1 9BT       0.052033
     38 H4         -10.1750    -1.0380    -1.4930 h5         1 9BT       0.053100
     39 H5          -6.0050    -1.0980     1.5220 ha         1 9BT       0.119500
     40 H6          -3.7410    -0.9280     2.4460 ha         1 9BT       0.118500
     41 H7          -5.1190     2.1850    -1.1730 ha         1 9BT       0.119500
     42 H8          -2.8840     2.3610    -0.2110 ha         1 9BT       0.118500
     43 H9          -1.3950     1.8750     1.7110 h1         1 9BT       0.067700
     44 H10         -1.7630     0.5460     2.8320 h1         1 9BT       0.067700
     45 H11         -1.1800    -0.5510     0.2560 hn         1 9BT       0.317500
     46 H12          0.7410    -1.0400    -0.6240 h1         1 9BT       0.077700
     47 H13          1.1200    -2.7000     1.9840 hc         1 9BT       0.072700
     48 H14         -0.0800    -2.9950     0.7240 hc         1 9BT       0.072700
     49 H15          2.1970    -4.4070     0.6030 h1         1 9BT       0.053700
     50 H16          2.2780    -4.2310    -1.6510 ho         1 9BT       0.450000
     51 H17          3.8180    -2.7360     1.1490 h1         1 9BT       0.062200
     52 H18          3.9200    -2.6070    -0.6220 h1         1 9BT       0.062200
     53 H19          5.2920    -0.9190    -0.0840 h1         1 9BT       0.085700
     54 H20          3.7330     1.8800     2.0150 hc         1 9BT       0.040367
     55 H21          5.1830     2.1600     2.9880 hc         1 9BT       0.040367
     56 H22          5.1570     2.6520     1.2890 hc         1 9BT       0.040367
     57 H23          5.2810    -1.5600     2.4010 hc         1 9BT       0.040367
     58 H24          5.2570    -0.2970     3.6380 hc         1 9BT       0.040367
     59 H25          3.8040    -0.6070     2.6870 hc         1 9BT       0.040367
     60 H26          7.3450     1.3170     1.0230 hc         1 9BT       0.040367
     61 H27          7.2750     0.7180     2.6820 hc         1 9BT       0.040367
     62 H28          7.3680    -0.4320     1.3360 hc         1 9BT       0.040367
     63 H29          4.9880     1.8920    -1.0420 hn         1 9BT       0.328500
     64 H30          6.0300     2.1170    -3.2820 h1         1 9BT       0.034200
     65 H31          7.1140     2.8070    -2.0680 h1         1 9BT       0.034200
     66 H32          8.1950     2.4280    -4.1050 ho         1 9BT       0.445000
@<TRIPOS>BOND
     1     1     2 1   
     2     1    35 1   
     3     1    36 1   
     4     1    37 1   
     5     2     3 1   
     6     2     6 2   
     7     3     4 2   
     8     4     5 1   
     9     4    38 1   
    10     5     6 1   
    11     6     7 1   
    12     7     8 ar  
    13     7    10 ar  
    14     8     9 ar  
    15     8    39 1   
    16     9    12 ar  
    17     9    40 1   
    18    10    11 ar  
    19    10    41 1   
    20    11    12 ar  
    21    11    42 1   
    22    12    13 1   
    23    13    14 1   
    24    13    43 1   
    25    13    44 1   
    26    14    15 1   
    27    14    45 1   
    28    15    16 2   
    29    15    17 1   
    30    17    18 1   
    31    17    22 1   
    32    17    46 1   
    33    18    19 1   
    34    18    47 1   
    35    18    48 1   
    36    19    20 1   
    37    19    21 1   
    38    19    49 1   
    39    20    50 1   
    40    21    22 1   
    41    21    51 1   
    42    21    52 1   
    43    22    23 1   
    44    23    24 2   
    45    23    25 1   
    46    25    26 1   
    47    25    30 1   
    48    25    53 1   
    49    26    27 1   
    50    26    28 1   
    51    26    29 1   
    52    27    54 1   
    53    27    55 1   
    54    27    56 1   
    55    28    57 1   
    56    28    58 1   
    57    28    59 1   
    58    29    60 1   
    59    29    61 1   
    60    29    62 1   
    61    30    31 1   
    62    30    63 1   
    63    31    32 2   
    64    31    33 1   
    65    33    34 1   
    66    33    64 1   
    67    33    65 1   
    68    34    66 1   
@<TRIPOS>SUBSTRUCTURE
     1 9BT         1 TEMP              0 ****  ****    0 ROOT
