@<TRIPOS>MOLECULE
9BU
   57    57     1     0     0
SMALL
No Charge or Current Charge


@<TRIPOS>ATOM
      1 CAD          8.6510     0.4360     1.4930 c3         1 9BU      -0.083600
      2 CBB          7.5170     1.4050     1.0800 c3         1 9BU      -0.117700
      3 CAE          8.0080     2.8680     0.9730 c3         1 9BU      -0.083600
      4 CAU          6.8390     0.9440    -0.2260 c          1 9BU       0.590100
      5 OAG          7.4120     0.8800    -1.3060 o          1 9BU      -0.492000
      6 OAR          5.5290     0.5990    -0.0250 os         1 9BU      -0.446100
      7 CAN          4.7750     0.1350    -1.1550 c3         1 9BU       0.203800
      8 CAL          3.3850    -0.2040    -0.6610 c2         1 9BU      -0.231200
      9 CAS          3.0150    -1.2860     0.0520 c2         1 9BU      -0.083400
     10 CAA          3.9640    -2.3850     0.5120 c3         1 9BU      -0.061900
     11 CAO          1.5770    -1.5050     0.5020 c3         1 9BU      -0.046200
     12 CAP          0.8410    -2.5850    -0.3230 c3         1 9BU      -0.041200
     13 CAT         -0.6360    -2.6990     0.0300 c2         1 9BU      -0.111400
     14 CAB         -0.8700    -3.4750     1.3230 c3         1 9BU      -0.063900
     15 CAM         -1.5890    -2.1640    -0.7600 c2         1 9BU      -0.253200
     16 CAQ         -3.0990    -2.1720    -0.5800 c3         1 9BU       0.012100
     17 CBA         -3.6770    -0.7450    -0.4980 ca         1 9BU      -0.248300
     18 CAX         -4.6930    -0.3060    -1.3740 ca         1 9BU       0.277100
     19 OAI         -5.1580    -1.1550    -2.3280 oh         1 9BU      -0.547100
     20 CAZ         -5.2380     0.9950    -1.2760 ca         1 9BU      -0.363600
     21 CAK         -6.3250     1.4430    -2.2320 c          1 9BU       0.604500
     22 OAF         -6.7780     0.7100    -3.1080 o          1 9BU      -0.577100
     23 CAV         -4.7610     1.8810    -0.2710 ca         1 9BU       0.067700
     24 CAC         -5.3490     3.2950    -0.1510 c3         1 9BU      -0.065800
     25 CAY         -3.7430     1.4420     0.6110 ca         1 9BU       0.012000
     26 ClA         -3.0960     2.4990     1.8840 cl         1 9BU      -0.180000
     27 CAW         -3.2120     0.1430     0.4890 ca         1 9BU       0.240100
     28 OAH         -2.2210    -0.2670     1.3340 oh         1 9BU      -0.519100
     29 H1           8.2660    -0.5860     1.5970 hc         1 9BU       0.043533
     30 H2           9.4500     0.4270     0.7420 hc         1 9BU       0.043533
     31 H3           9.0860     0.7350     2.4540 hc         1 9BU       0.043533
     32 H4           6.7580     1.3710     1.8720 hc         1 9BU       0.072700
     33 H5           8.7790     2.9670     0.2000 hc         1 9BU       0.043533
     34 H6           7.1760     3.5350     0.7150 hc         1 9BU       0.043533
     35 H7           8.4320     3.2060     1.9260 hc         1 9BU       0.043533
     36 H8           4.7150     0.9140    -1.9280 h1         1 9BU       0.053200
     37 H9           5.2420    -0.7520    -1.6040 h1         1 9BU       0.053200
     38 H10          2.6420     0.5420    -0.9420 ha         1 9BU       0.179000
     39 H11          3.9320    -2.4990     1.6020 hc         1 9BU       0.044033
     40 H12          3.7010    -3.3510     0.0680 hc         1 9BU       0.044033
     41 H13          5.0060    -2.1810     0.2430 hc         1 9BU       0.044033
     42 H14          1.5520    -1.7660     1.5670 hc         1 9BU       0.050700
     43 H15          1.0130    -0.5680     0.4100 hc         1 9BU       0.050700
     44 H16          0.9510    -2.3300    -1.3850 hc         1 9BU       0.052700
     45 H17          1.3370    -3.5560    -0.1990 hc         1 9BU       0.052700
     46 H18         -0.4180    -4.4730     1.2640 hc         1 9BU       0.045367
     47 H19         -0.4200    -2.9630     2.1810 hc         1 9BU       0.045367
     48 H20         -1.9260    -3.6240     1.5600 hc         1 9BU       0.045367
     49 H21         -1.2890    -1.6410    -1.6720 ha         1 9BU       0.182000
     50 H22         -3.5300    -2.7420    -1.4100 hc         1 9BU       0.068700
     51 H23         -3.4100    -2.7260     0.3120 hc         1 9BU       0.068700
     52 H24         -5.8550    -0.6500    -2.8200 ho         1 9BU       0.523000
     53 H25         -6.7170     2.4760    -2.1270 h4         1 9BU       0.008200
     54 H26         -6.4300     3.2540     0.0310 hc         1 9BU       0.057367
     55 H27         -4.9260     3.8910     0.6610 hc         1 9BU       0.057367
     56 H28         -5.1810     3.8660    -1.0720 hc         1 9BU       0.057367
     57 H29         -1.8450    -1.0830     0.9370 ho         1 9BU       0.492000
@<TRIPOS>BOND
     1     1     2 1   
     2     1    29 1   
     3     1    30 1   
     4     1    31 1   
     5     2     3 1   
     6     2     4 1   
     7     2    32 1   
     8     3    33 1   
     9     3    34 1   
    10     3    35 1   
    11     4     5 2   
    12     4     6 1   
    13     6     7 1   
    14     7     8 1   
    15     7    36 1   
    16     7    37 1   
    17     8     9 2   
    18     8    38 1   
    19     9    10 1   
    20     9    11 1   
    21    10    39 1   
    22    10    40 1   
    23    10    41 1   
    24    11    12 1   
    25    11    42 1   
    26    11    43 1   
    27    12    13 1   
    28    12    44 1   
    29    12    45 1   
    30    13    14 1   
    31    13    15 2   
    32    14    46 1   
    33    14    47 1   
    34    14    48 1   
    35    15    16 1   
    36    15    49 1   
    37    16    17 1   
    38    16    50 1   
    39    16    51 1   
    40    17    18 ar  
    41    17    27 ar  
    42    18    19 1   
    43    18    20 ar  
    44    19    52 1   
    45    20    21 1   
    46    20    23 ar  
    47    21    22 2   
    48    21    53 1   
    49    23    24 1   
    50    23    25 ar  
    51    24    54 1   
    52    24    55 1   
    53    24    56 1   
    54    25    26 1   
    55    25    27 ar  
    56    27    28 1   
    57    28    57 1   
@<TRIPOS>SUBSTRUCTURE
     1 9BU         1 TEMP              0 ****  ****    0 ROOT
