@<TRIPOS>MOLECULE
9BU
   57    57     1     0     0
SMALL
abcg2


@<TRIPOS>ATOM
      1 CAD          7.6510     0.7490     2.1960 c3         1 9BU      -0.083600
      2 CBB          7.5670     1.7650     1.0510 c3         1 9BU      -0.117700
      3 CAE          8.9330     2.3490     0.7240 c3         1 9BU      -0.083600
      4 CAU          6.9420     1.1170    -0.1650 c          1 9BU       0.590100
      5 OAG          7.5100     0.9170    -1.2110 o          1 9BU      -0.492000
      6 OAR          5.6820     0.7660     0.0560 os         1 9BU      -0.446100
      7 CAN          4.9840     0.0760    -1.0000 c3         1 9BU       0.203800
      8 CAL          3.6030    -0.2130    -0.5180 c2         1 9BU      -0.231200
      9 CAS          3.1490    -1.3920    -0.0830 c2         1 9BU      -0.083400
     10 CAA          3.9740    -2.6370     0.0420 c3         1 9BU      -0.061900
     11 CAO          1.7100    -1.5330     0.3330 c3         1 9BU      -0.046200
     12 CAP          0.8860    -2.3760    -0.6540 c3         1 9BU      -0.041200
     13 CAT         -0.5330    -2.5450    -0.1920 c2         1 9BU      -0.111400
     14 CAB         -0.7510    -3.4000     1.0300 c3         1 9BU      -0.063900
     15 CAM         -1.5350    -1.9460    -0.8490 c2         1 9BU      -0.253200
     16 CAQ         -2.9940    -2.0200    -0.4930 c3         1 9BU       0.012100
     17 CBA         -3.6590    -0.6650    -0.4430 ca         1 9BU      -0.248300
     18 CAX         -4.8450    -0.4060    -1.1310 ca         1 9BU       0.277100
     19 OAI         -5.3590    -1.3760    -1.8770 oh         1 9BU      -0.547100
     20 CAZ         -5.4910     0.8490    -1.0320 ca         1 9BU      -0.363600
     21 CAK         -6.7090     1.0650    -1.7770 c          1 9BU       0.604500
     22 OAF         -7.2410     0.2160    -2.4900 o          1 9BU      -0.577100
     23 CAV         -4.9500     1.8730    -0.2190 ca         1 9BU       0.067700
     24 CAC         -5.6460     3.1980    -0.1070 c3         1 9BU      -0.065800
     25 CAY         -3.7730     1.6070     0.4450 ca         1 9BU       0.012000
     26 CLA         -3.0030     2.7880     1.4550 cl         1 9BU      -0.180000
     27 CAW         -3.1270     0.3590     0.3350 ca         1 9BU       0.240100
     28 OAH         -1.9970     0.2100     1.0240 oh         1 9BU      -0.519100
     29 H1           6.6700     0.3880     2.4990 hc         1 9BU       0.043533
     30 H2           8.2590    -0.1110     1.9110 hc         1 9BU       0.043533
     31 H3           8.1200     1.2110     3.0650 hc         1 9BU       0.043533
     32 H4           6.9000     2.5750     1.3670 hc         1 9BU       0.072700
     33 H5           9.6400     1.5700     0.4340 hc         1 9BU       0.043533
     34 H6           8.8820     3.0780    -0.0830 hc         1 9BU       0.043533
     35 H7           9.3380     2.8530     1.6010 hc         1 9BU       0.043533
     36 H8           4.9480     0.7150    -1.8850 h1         1 9BU       0.053200
     37 H9           5.5280    -0.8290    -1.2700 h1         1 9BU       0.053200
     38 H10          2.9140     0.6250    -0.5350 ha         1 9BU       0.179000
     39 H11          3.9290    -3.0060     1.0700 hc         1 9BU       0.044033
     40 H12          3.5830    -3.4390    -0.5880 hc         1 9BU       0.044033
     41 H13          5.0220    -2.4980    -0.2130 hc         1 9BU       0.044033
     42 H14          1.6700    -1.9900     1.3270 hc         1 9BU       0.050700
     43 H15          1.2470    -0.5460     0.4200 hc         1 9BU       0.050700
     44 H16          0.9080    -1.8970    -1.6350 hc         1 9BU       0.052700
     45 H17          1.3420    -3.3640    -0.7690 hc         1 9BU       0.052700
     46 H18          0.1900    -3.7930     1.4130 hc         1 9BU       0.045367
     47 H19         -1.2220    -2.8480     1.8450 hc         1 9BU       0.045367
     48 H20         -1.3930    -4.2530     0.8090 hc         1 9BU       0.045367
     49 H21         -1.2960    -1.3610    -1.7340 ha         1 9BU       0.182000
     50 H22         -3.5020    -2.6400    -1.2330 hc         1 9BU       0.068700
     51 H23         -3.1360    -2.5270     0.4660 hc         1 9BU       0.068700
     52 H24         -6.1880    -1.0340    -2.2930 ho         1 9BU       0.523000
     53 H25         -7.1760     2.0540    -1.6990 h4         1 9BU       0.008200
     54 H26         -6.6820     3.0770     0.2070 hc         1 9BU       0.057367
     55 H27         -5.1630     3.8490     0.6140 hc         1 9BU       0.057367
     56 H28         -5.6510     3.7210    -1.0640 hc         1 9BU       0.057367
     57 H29         -1.5000    -0.5590     0.6920 ho         1 9BU       0.492000
@<TRIPOS>BOND
     1     1     2 1   
     2     1    29 1   
     3     1    30 1   
     4     1    31 1   
     5     2     3 1   
     6     2     4 1   
     7     2    32 1   
     8     3    33 1   
     9     3    34 1   
    10     3    35 1   
    11     4     5 2   
    12     4     6 1   
    13     6     7 1   
    14     7     8 1   
    15     7    36 1   
    16     7    37 1   
    17     8     9 2   
    18     8    38 1   
    19     9    10 1   
    20     9    11 1   
    21    10    39 1   
    22    10    40 1   
    23    10    41 1   
    24    11    12 1   
    25    11    42 1   
    26    11    43 1   
    27    12    13 1   
    28    12    44 1   
    29    12    45 1   
    30    13    14 1   
    31    13    15 2   
    32    14    46 1   
    33    14    47 1   
    34    14    48 1   
    35    15    16 1   
    36    15    49 1   
    37    16    17 1   
    38    16    50 1   
    39    16    51 1   
    40    17    18 ar  
    41    17    27 ar  
    42    18    19 1   
    43    18    20 ar  
    44    19    52 1   
    45    20    21 1   
    46    20    23 ar  
    47    21    22 2   
    48    21    53 1   
    49    23    24 1   
    50    23    25 ar  
    51    24    54 1   
    52    24    55 1   
    53    24    56 1   
    54    25    26 1   
    55    25    27 ar  
    56    27    28 1   
    57    28    57 1   
@<TRIPOS>SUBSTRUCTURE
     1 9BU         1 TEMP              0 ****  ****    0 ROOT
