@<TRIPOS>MOLECULE
9BV
   19    21     1     0     0
SMALL
No Charge or Current Charge


@<TRIPOS>ATOM
      1 C4           1.0130     0.9100    -0.0020 ca         1 9BV       0.366000
      2 C7          -0.3160    -1.1600    -0.0120 cc         1 9BV       0.264100
      3 C6           2.2010    -1.2310    -0.0080 ca         1 9BV      -0.048000
      4 C9          -1.3610     0.9460    -0.0060 cc         1 9BV       0.431500
      5 C1           3.4280    -0.5470    -0.0020 ca         1 9BV      -0.131000
      6 C2           3.4540     0.8570     0.0030 ca         1 9BV      -0.053000
      7 C3           2.2480     1.5780     0.0040 ca         1 9BV      -0.118000
      8 C5           0.9890    -0.5050    -0.0070 ca         1 9BV      -0.185000
      9 N8          -1.4740    -0.4050    -0.0120 na         1 9BV      -0.019100
     10 N10         -0.1780     1.6500    -0.0010 nc         1 9BV      -0.666000
     11 N11         -2.5980     1.3910    -0.0070 nd         1 9BV      -0.134000
     12 N12         -3.4230     0.2640    -0.0130 nd         1 9BV       0.034000
     13 N13         -2.7420    -0.8610    -0.0160 nc         1 9BV      -0.310400
     14 O14         -0.3970    -2.5080    -0.0180 oh         1 9BV      -0.491100
     15 HC6          2.1970    -2.3190    -0.0120 ha         1 9BV       0.132000
     16 HC1          4.3610    -1.1070    -0.0030 ha         1 9BV       0.126000
     17 HC2          4.4050     1.3850     0.0070 ha         1 9BV       0.125000
     18 HC3          2.2670     2.6640     0.0080 ha         1 9BV       0.146000
     19 HO14        -1.3580    -2.7140    -0.0210 ho         1 9BV       0.531000
@<TRIPOS>BOND
     1     1     7 ar  
     2     1     8 ar  
     3     1    10 2   
     4     2     8 2   
     5     2     9 1   
     6     2    14 1   
     7     3     5 ar  
     8     3     8 ar  
     9     3    15 1   
    10     4     9 1   
    11     4    10 1   
    12     4    11 2   
    13     5     6 ar  
    14     5    16 1   
    15     6     7 ar  
    16     6    17 1   
    17     7    18 1   
    18     9    13 1   
    19    11    12 1   
    20    12    13 2   
    21    14    19 1   
@<TRIPOS>SUBSTRUCTURE
     1 9BV         1 TEMP              0 ****  ****    0 ROOT
