@<TRIPOS>MOLECULE
9BV
   19    21     1     0     0
SMALL
bcc


@<TRIPOS>ATOM
      1 C4           0.9490     0.9030    -0.0030 ca         1 9BV       0.496600
      2 C7          -0.2730    -1.1870    -0.0130 cc         1 9BV       0.314800
      3 C6           2.1860    -1.2420    -0.0070 ca         1 9BV      -0.066000
      4 C9          -1.2930     0.9730    -0.0060 cc         1 9BV       0.431500
      5 C1           3.3640    -0.5610    -0.0010 ca         1 9BV      -0.149000
      6 C2           3.3660     0.8560     0.0030 ca         1 9BV      -0.071000
      7 C3           2.2020     1.5670     0.0020 ca         1 9BV      -0.201300
      8 C5           0.9590    -0.5290    -0.0080 ca         1 9BV      -0.250300
      9 N8          -1.3550    -0.4000    -0.0110 na         1 9BV      -0.069800
     10 N10         -0.1700     1.6430    -0.0010 nc         1 9BV      -0.666000
     11 N11         -2.5600     1.3920    -0.0050 nd         1 9BV      -0.134000
     12 N12         -3.3090     0.3110    -0.0100 nd         1 9BV       0.034000
     13 N13         -2.6470    -0.7820    -0.0140 nc         1 9BV      -0.310400
     14 O14         -0.3900    -2.4800    -0.0190 oh         1 9BV      -0.452100
     15 HC6          2.1800    -2.3240    -0.0100 ha         1 9BV       0.150000
     16 HC1          4.3010    -1.0990     0.0000 ha         1 9BV       0.144000
     17 HC2          4.3110     1.3820     0.0070 ha         1 9BV       0.143000
     18 HC3          2.2070     2.6480     0.0050 ha         1 9BV       0.164000
     19 HO14        -1.3120    -2.7840    -0.0260 ho         1 9BV       0.492000
@<TRIPOS>BOND
     1     1     7 ar  
     2     1     8 ar  
     3     1    10 2   
     4     2     8 2   
     5     2     9 1   
     6     2    14 1   
     7     3     5 ar  
     8     3     8 ar  
     9     3    15 1   
    10     4     9 1   
    11     4    10 1   
    12     4    11 2   
    13     5     6 ar  
    14     5    16 1   
    15     6     7 ar  
    16     6    17 1   
    17     7    18 1   
    18     9    13 1   
    19    11    12 1   
    20    12    13 2   
    21    14    19 1   
@<TRIPOS>SUBSTRUCTURE
     1 9BV         1 TEMP              0 ****  ****    0 ROOT
