@<TRIPOS>MOLECULE
9BW
   69    72     1     0     0
SMALL
abcg2


@<TRIPOS>ATOM
      1 CAN         -8.9860     0.7820     1.3680 cx         1 9BW      -0.098900
      2 CAO         -8.1920     0.5300     2.5970 cx         1 9BW      -0.098900
      3 CBE         -7.5070     1.0630     1.3660 cx         1 9BW      -0.242700
      4 CAX         -6.6260     0.1370     0.6050 c          1 9BW       0.637100
      5 OAF         -6.8640    -1.0600     0.5080 o          1 9BW      -0.623100
      6 NAU         -5.5580     0.7290     0.0360 ns         1 9BW      -0.492900
      7 CBG         -4.5540     0.0240    -0.7240 c3         1 9BW       0.049700
      8 CBI         -4.5580     0.4290    -2.2260 c3         1 9BW      -0.046000
      9 CAD         -4.2060     1.9040    -2.4310 c3         1 9BW      -0.089433
     10 CAB         -3.5540    -0.4310    -2.9940 c3         1 9BW      -0.089433
     11 CAC         -5.9580     0.1640    -2.7820 c3         1 9BW      -0.089433
     12 CAY         -3.2110     0.2750    -0.0450 c          1 9BW       0.604100
     13 OAG         -2.9360     1.3960     0.3710 o          1 9BW      -0.617100
     14 N           -2.3420    -0.7380     0.0930 n          1 9BW      -0.385800
     15 CD2         -2.5090    -2.1500    -0.2200 c5         1 9BW       0.070000
     16 CG          -1.5490    -2.8240     0.7530 c5         1 9BW       0.153300
     17 OD1         -2.0690    -2.8770     2.0610 oh         1 9BW      -0.652000
     18 CB          -0.3820    -1.8520     0.7540 c5         1 9BW      -0.083400
     19 CA          -1.0580    -0.4720     0.7120 c5         1 9BW       0.029700
     20 C           -0.2340     0.5010    -0.1210 c          1 9BW       0.605100
     21 O           -0.3030     0.5200    -1.3390 o          1 9BW      -0.604100
     22 NAT          0.6110     1.2580     0.5960 ns         1 9BW      -0.496900
     23 CAP          1.6070     2.1310     0.0140 c3         1 9BW       0.146300
     24 CAZ          2.9740     1.4980    -0.0230 ca         1 9BW      -0.109300
     25 CAI          3.2220     0.3830    -0.8230 ca         1 9BW      -0.098000
     26 CAK          4.4680    -0.2170    -0.8350 ca         1 9BW      -0.099500
     27 CAJ          4.0130     2.0000     0.7510 ca         1 9BW      -0.098000
     28 CAL          5.2690     1.4090     0.7330 ca         1 9BW      -0.099500
     29 CBB          5.5130     0.2840    -0.0520 ca         1 9BW      -0.003000
     30 CBC          6.8300    -0.3540    -0.0640 cc         1 9BW      -0.184000
     31 SAV          7.5630    -0.8430    -1.5500 ss         1 9BW      -0.028400
     32 CAM          8.9140    -1.4240    -0.6730 cc         1 9BW       0.413300
     33 NAS          8.8360    -1.2710     0.6080 nd         1 9BW      -0.637000
     34 CBA          7.6630    -0.6690     0.9760 cd         1 9BW       0.301300
     35 CAA          7.3950    -0.4450     2.4270 c3         1 9BW      -0.121400
     36 H1          -9.3290    -0.0720     0.7980 hc         1 9BW       0.080700
     37 H2          -9.6470     1.6380     1.3440 hc         1 9BW       0.080700
     38 H3          -8.2960     1.2130     3.4300 hc         1 9BW       0.080700
     39 H4          -7.9880    -0.4960     2.8730 hc         1 9BW       0.080700
     40 H5          -7.2100     2.1060     1.3870 hc         1 9BW       0.087700
     41 H6          -5.4060     1.7100     0.2090 hn         1 9BW       0.331500
     42 H7          -4.8230    -1.0320    -0.6790 h1         1 9BW       0.086700
     43 H8          -3.1730     2.1190    -2.1620 hc         1 9BW       0.039922
     44 H9          -4.3310     2.1640    -3.4840 hc         1 9BW       0.039922
     45 H10         -4.8520     2.5710    -1.8570 hc         1 9BW       0.039922
     46 H11         -3.7720    -1.4960    -2.8870 hc         1 9BW       0.039922
     47 H12         -3.6060    -0.1970    -4.0580 hc         1 9BW       0.039922
     48 H13         -2.5270    -0.2550    -2.6700 hc         1 9BW       0.039922
     49 H14         -6.7120     0.7910    -2.3050 hc         1 9BW       0.039922
     50 H15         -5.9830     0.3770    -3.8520 hc         1 9BW       0.039922
     51 H16         -6.2550    -0.8790    -2.6450 hc         1 9BW       0.039922
     52 H17         -3.5380    -2.4840    -0.0910 h1         1 9BW       0.062200
     53 H18         -2.2070    -2.3680    -1.2470 h1         1 9BW       0.062200
     54 H19         -1.2580    -3.8160     0.3900 h1         1 9BW       0.052700
     55 H20         -2.8410    -3.4520     2.0620 ho         1 9BW       0.450000
     56 H21          0.2720    -1.9660     1.6170 hc         1 9BW       0.071200
     57 H22          0.2170    -2.0160    -0.1440 hc         1 9BW       0.071200
     58 H23         -1.2000    -0.0800     1.7240 h1         1 9BW       0.082700
     59 H24          0.6160     1.1580     1.5980 hn         1 9BW       0.316500
     60 H25          1.2810     2.3990    -0.9910 h1         1 9BW       0.068200
     61 H26          1.6400     3.0520     0.5980 h1         1 9BW       0.068200
     62 H27          2.4340    -0.0250    -1.4440 ha         1 9BW       0.121000
     63 H28          4.6270    -1.0930    -1.4530 ha         1 9BW       0.119000
     64 H29          3.8470     2.8720     1.3730 ha         1 9BW       0.121000
     65 H30          6.0650     1.8420     1.3240 ha         1 9BW       0.119000
     66 H31          9.7540    -1.8790    -1.1800 h5         1 9BW       0.053100
     67 H32          7.9360     0.4270     2.8000 hc         1 9BW       0.051367
     68 H33          6.3370    -0.2870     2.6250 hc         1 9BW       0.051367
     69 H34          7.7270    -1.3050     3.0080 hc         1 9BW       0.051367
@<TRIPOS>BOND
     1     1     2 1   
     2     1     3 1   
     3     1    36 1   
     4     1    37 1   
     5     2     3 1   
     6     2    38 1   
     7     2    39 1   
     8     3     4 1   
     9     3    40 1   
    10     4     5 2   
    11     4     6 1   
    12     6     7 1   
    13     6    41 1   
    14     7     8 1   
    15     7    12 1   
    16     7    42 1   
    17     8     9 1   
    18     8    10 1   
    19     8    11 1   
    20     9    43 1   
    21     9    44 1   
    22     9    45 1   
    23    10    46 1   
    24    10    47 1   
    25    10    48 1   
    26    11    49 1   
    27    11    50 1   
    28    11    51 1   
    29    12    13 2   
    30    12    14 1   
    31    14    15 1   
    32    14    19 1   
    33    15    16 1   
    34    15    52 1   
    35    15    53 1   
    36    16    17 1   
    37    16    18 1   
    38    16    54 1   
    39    17    55 1   
    40    18    19 1   
    41    18    56 1   
    42    18    57 1   
    43    19    20 1   
    44    19    58 1   
    45    20    21 2   
    46    20    22 1   
    47    22    23 1   
    48    22    59 1   
    49    23    24 1   
    50    23    60 1   
    51    23    61 1   
    52    24    25 ar  
    53    24    27 ar  
    54    25    26 ar  
    55    25    62 1   
    56    26    29 ar  
    57    26    63 1   
    58    27    28 ar  
    59    27    64 1   
    60    28    29 ar  
    61    28    65 1   
    62    29    30 1   
    63    30    31 1   
    64    30    34 2   
    65    31    32 1   
    66    32    33 2   
    67    32    66 1   
    68    33    34 1   
    69    34    35 1   
    70    35    67 1   
    71    35    68 1   
    72    35    69 1   
@<TRIPOS>SUBSTRUCTURE
     1 9BW         1 TEMP              0 ****  ****    0 ROOT
