@<TRIPOS>MOLECULE
9BW
   69    72     1     0     0
SMALL
No Charge or Current Charge


@<TRIPOS>ATOM
      1 CAN         -8.9060     0.7790     1.5590 cx         1 9BW      -0.098900
      2 CAO         -7.8390     1.8450     1.6290 cx         1 9BW      -0.098900
      3 CBE         -8.0490     1.0690     0.3430 cx         1 9BW      -0.242700
      4 CAX         -7.0120     0.0580    -0.0740 c          1 9BW       0.637100
      5 OAF         -7.2600    -1.1300    -0.2120 o          1 9BW      -0.623100
      6 NAU         -5.7680     0.5970    -0.2870 ns         1 9BW      -0.492900
      7 CBG         -4.5600    -0.1580    -0.7040 c3         1 9BW       0.049700
      8 CBI         -4.2770     0.0010    -2.2500 c3         1 9BW      -0.046000
      9 CAD         -3.9330     1.4760    -2.6020 c3         1 9BW      -0.089433
     10 CAB         -3.0970    -0.9000    -2.7030 c3         1 9BW      -0.089433
     11 CAC         -5.5280    -0.4210    -3.0730 c3         1 9BW      -0.089433
     12 CAY         -3.3630     0.2740     0.2140 c          1 9BW       0.604100
     13 OAG         -3.3060     1.4070     0.6880 o          1 9BW      -0.617100
     14 N           -2.3180    -0.6420     0.4690 n          1 9BW      -0.385800
     15 CD2         -2.5300    -2.1120     0.5240 c5         1 9BW       0.070000
     16 CG          -1.3520    -2.6160     1.4150 c5         1 9BW       0.153300
     17 OD1         -1.6850    -2.6220     2.8080 oh         1 9BW      -0.652000
     18 CB          -0.2590    -1.5640     1.1050 c5         1 9BW      -0.083400
     19 CA          -1.0620    -0.2300     1.1530 c5         1 9BW       0.029700
     20 C           -0.2340     0.8740     0.4220 c          1 9BW       0.605100
     21 O           -0.3280     1.2260    -0.7470 o          1 9BW      -0.604100
     22 NAT          0.6620     1.4300     1.3100 ns         1 9BW      -0.496900
     23 CAP          1.6480     2.4500     0.9570 c3         1 9BW       0.146300
     24 CAZ          2.9760     1.8150     0.5720 ca         1 9BW      -0.109300
     25 CAI          3.2280     1.4510    -0.7640 ca         1 9BW      -0.098000
     26 CAK          4.4500     0.8540    -1.1180 ca         1 9BW      -0.099500
     27 CAJ          3.9610     1.5760     1.5490 ca         1 9BW      -0.098000
     28 CAL          5.1820     0.9780     1.1930 ca         1 9BW      -0.099500
     29 CBB          5.4310     0.6030    -0.1420 ca         1 9BW      -0.003000
     30 CBC          6.6990    -0.0110    -0.5270 cc         1 9BW      -0.184000
     31 SAV          7.6980     0.5210    -1.8440 ss         1 9BW      -0.028400
     32 CAM          8.7650    -0.8030    -1.4490 cc         1 9BW       0.413300
     33 NAS          8.3910    -1.5960    -0.4480 nd         1 9BW      -0.637000
     34 CBA          7.1880    -1.1500     0.0820 cd         1 9BW       0.301300
     35 CAA          6.5550    -1.9310     1.2050 c3         1 9BW      -0.121400
     36 H1          -8.7320    -0.1470     2.1030 hc         1 9BW       0.080700
     37 H2          -9.9450     1.1030     1.5380 hc         1 9BW       0.080700
     38 H3          -8.1610     2.8830     1.6550 hc         1 9BW       0.080700
     39 H4          -6.9540     1.6310     2.2250 hc         1 9BW       0.080700
     40 H5          -8.5260     1.5960    -0.4790 hc         1 9BW       0.087700
     41 H6          -5.6730     1.5900    -0.1070 hn         1 9BW       0.331500
     42 H7          -4.7480    -1.2190    -0.5070 h1         1 9BW       0.086700
     43 H8          -3.0180     1.8050    -2.0950 hc         1 9BW       0.039922
     44 H9          -3.7710     1.5920    -3.6800 hc         1 9BW       0.039922
     45 H10         -4.7450     2.1560    -2.3140 hc         1 9BW       0.039922
     46 H11         -3.3050    -1.9550    -2.4910 hc         1 9BW       0.039922
     47 H12         -2.9300    -0.8090    -3.7830 hc         1 9BW       0.039922
     48 H13         -2.1600    -0.6210    -2.2080 hc         1 9BW       0.039922
     49 H14         -6.3780     0.2460    -2.8880 hc         1 9BW       0.039922
     50 H15         -5.3190    -0.3910    -4.1500 hc         1 9BW       0.039922
     51 H16         -5.8350    -1.4440    -2.8210 hc         1 9BW       0.039922
     52 H17         -3.5050    -2.3770     0.9550 h1         1 9BW       0.062200
     53 H18         -2.4660    -2.5540    -0.4780 h1         1 9BW       0.062200
     54 H19         -1.0280    -3.6210     1.1090 h1         1 9BW       0.052700
     55 H20         -2.3090    -3.3670     2.9530 ho         1 9BW       0.450000
     56 H21          0.5680    -1.5870     1.8230 hc         1 9BW       0.071200
     57 H22          0.1710    -1.7370     0.1110 hc         1 9BW       0.071200
     58 H23         -1.2690     0.0890     2.1830 h1         1 9BW       0.082700
     59 H24          0.6650     1.0670     2.2550 hn         1 9BW       0.316500
     60 H25          1.2700     3.0630     0.1280 h1         1 9BW       0.068200
     61 H26          1.7920     3.1160     1.8190 h1         1 9BW       0.068200
     62 H27          2.4750     1.6280    -1.5290 ha         1 9BW       0.121000
     63 H28          4.6310     0.5760    -2.1540 ha         1 9BW       0.119000
     64 H29          3.7820     1.8550     2.5860 ha         1 9BW       0.121000
     65 H30          5.9390     0.8150     1.9560 ha         1 9BW       0.119000
     66 H31          9.6700    -0.9360    -2.0290 h5         1 9BW       0.053100
     67 H32          6.8080    -1.4920     2.1760 hc         1 9BW       0.051367
     68 H33          5.4640    -1.9480     1.1110 hc         1 9BW       0.051367
     69 H34          6.9000    -2.9720     1.2090 hc         1 9BW       0.051367
@<TRIPOS>BOND
     1     1     2 1   
     2     1     3 1   
     3     1    36 1   
     4     1    37 1   
     5     2     3 1   
     6     2    38 1   
     7     2    39 1   
     8     3     4 1   
     9     3    40 1   
    10     4     5 2   
    11     4     6 1   
    12     6     7 1   
    13     6    41 1   
    14     7     8 1   
    15     7    12 1   
    16     7    42 1   
    17     8     9 1   
    18     8    10 1   
    19     8    11 1   
    20     9    43 1   
    21     9    44 1   
    22     9    45 1   
    23    10    46 1   
    24    10    47 1   
    25    10    48 1   
    26    11    49 1   
    27    11    50 1   
    28    11    51 1   
    29    12    13 2   
    30    12    14 1   
    31    14    15 1   
    32    14    19 1   
    33    15    16 1   
    34    15    52 1   
    35    15    53 1   
    36    16    17 1   
    37    16    18 1   
    38    16    54 1   
    39    17    55 1   
    40    18    19 1   
    41    18    56 1   
    42    18    57 1   
    43    19    20 1   
    44    19    58 1   
    45    20    21 2   
    46    20    22 1   
    47    22    23 1   
    48    22    59 1   
    49    23    24 1   
    50    23    60 1   
    51    23    61 1   
    52    24    25 ar  
    53    24    27 ar  
    54    25    26 ar  
    55    25    62 1   
    56    26    29 ar  
    57    26    63 1   
    58    27    28 ar  
    59    27    64 1   
    60    28    29 ar  
    61    28    65 1   
    62    29    30 1   
    63    30    31 1   
    64    30    34 2   
    65    31    32 1   
    66    32    33 2   
    67    32    66 1   
    68    33    34 1   
    69    34    35 1   
    70    35    67 1   
    71    35    68 1   
    72    35    69 1   
@<TRIPOS>SUBSTRUCTURE
     1 9BW         1 TEMP              0 ****  ****    0 ROOT
