@<TRIPOS>MOLECULE
9BX
   58    58     1     0     0
SMALL
No Charge or Current Charge


@<TRIPOS>ATOM
      1 CAU         -3.1820     3.5850     0.5450 c3         1 9BX      -0.096100
      2 CAT         -3.4710     2.1650     1.1000 c3         1 9BX       0.091000
      3 CAW         -2.5830     1.8960     2.3400 c3         1 9BX      -0.096100
      4 OAV         -4.8460     2.1540     1.5440 oh         1 9BX      -0.652000
      5 CAS         -3.2170     1.0560     0.0080 c          1 9BX       0.542300
      6 OAX         -2.7340     1.3150    -1.0900 o          1 9BX      -0.530100
      7 CAR         -3.6170    -0.3450     0.3490 ce         1 9BX      -0.316200
      8 CAQ         -3.4040    -1.4300    -0.4520 cf         1 9BX      -0.094000
      9 CAO         -3.7590    -2.8160    -0.1440 cf         1 9BX      -0.105200
     10 CAP         -4.9370    -3.0430     0.7910 c3         1 9BX      -0.051900
     11 CAN         -3.1070    -3.8700    -0.6960 c2         1 9BX      -0.180200
     12 CAM         -1.8970    -3.8180    -1.6150 c3         1 9BX      -0.047200
     13 CAL         -0.6030    -3.4720    -0.8450 c3         1 9BX      -0.041200
     14 CAJ          0.5760    -3.1500    -1.7570 c2         1 9BX      -0.117400
     15 CAK          1.2980    -4.3950    -2.2440 c3         1 9BX      -0.052900
     16 CAI          0.9700    -1.9100    -2.1100 c2         1 9BX      -0.208200
     17 CAH          0.3300    -0.5780    -1.7440 c3         1 9BX       0.027100
     18 CAG          1.2430     0.2950    -0.8690 ca         1 9BX      -0.176300
     19 CAY          1.0860     0.3410     0.5320 ca         1 9BX       0.278100
     20 OAZ          0.1160    -0.4090     1.1180 oh         1 9BX      -0.537100
     21 CBA          1.9180     1.1520     1.3390 ca         1 9BX      -0.366600
     22 CBB          1.7290     1.1850     2.8410 c          1 9BX       0.603500
     23 OBC          0.8710     0.5170     3.4120 o          1 9BX      -0.579100
     24 CAB          2.9350     1.9350     0.7290 ca         1 9BX       0.078700
     25 CAA          3.8450     2.8210     1.5920 c3         1 9BX      -0.066800
     26 CAC          3.0950     1.8840    -0.6780 ca         1 9BX      -0.045000
     27 ClA          4.3440     2.8310    -1.5120 cl         1 9BX      -0.207000
     28 CAE          2.2550     1.0710    -1.4610 ca         1 9BX       0.237100
     29 OAF          2.4380     1.0440    -2.8170 oh         1 9BX      -0.515100
     30 H1          -2.1320     3.6780     0.2410 hc         1 9BX       0.048533
     31 H2          -3.8080     3.8020    -0.3290 hc         1 9BX       0.048533
     32 H3          -3.3810     4.3510     1.3040 hc         1 9BX       0.048533
     33 H4          -2.7440     2.6610     3.1100 hc         1 9BX       0.048533
     34 H5          -2.8030     0.9190     2.7860 hc         1 9BX       0.048533
     35 H6          -1.5220     1.9120     2.0640 hc         1 9BX       0.048533
     36 H7          -5.4100     2.3970     0.7760 ho         1 9BX       0.444000
     37 H8          -4.0920    -0.4770     1.3190 ha         1 9BX       0.199000
     38 H10         -2.9020    -1.2590    -1.4060 ha         1 9BX       0.190000
     39 H11         -5.7310    -2.3060     0.6240 hc         1 9BX       0.042700
     40 H12         -5.3850    -4.0340     0.6490 hc         1 9BX       0.042700
     41 H13         -4.6270    -2.9700     1.8400 hc         1 9BX       0.042700
     42 H14         -3.4270    -4.8840    -0.4470 ha         1 9BX       0.170000
     43 H16         -1.7660    -4.7870    -2.1140 hc         1 9BX       0.050200
     44 H17         -2.0530    -3.0880    -2.4180 hc         1 9BX       0.050200
     45 H18         -0.8100    -2.6280    -0.1800 hc         1 9BX       0.053200
     46 H19         -0.3530    -4.3010    -0.1710 hc         1 9BX       0.053200
     47 H21          0.6270    -5.0450    -2.8180 hc         1 9BX       0.037700
     48 H22          2.1450    -4.1450    -2.8950 hc         1 9BX       0.037700
     49 H23          1.6930    -4.9790    -1.4040 hc         1 9BX       0.037700
     50 H24          1.8340    -1.7910    -2.7650 ha         1 9BX       0.170000
     51 H26          0.0800    -0.0420    -2.6670 hc         1 9BX       0.066200
     52 H27         -0.6420    -0.7200    -1.2660 hc         1 9BX       0.066200
     53 H28          0.2010    -0.2440     2.0910 ho         1 9BX       0.519000
     54 H29          2.3980     1.8410     3.4360 h4         1 9BX       0.006200
     55 H30          4.4000     2.2170     2.3200 hc         1 9BX       0.057367
     56 H31          4.5940     3.3810     1.0250 hc         1 9BX       0.057367
     57 H32          3.2580     3.5640     2.1430 hc         1 9BX       0.057367
     58 H33          3.1840     1.6490    -3.0180 ho         1 9BX       0.485000
@<TRIPOS>BOND
     1     1     2 1   
     2     1    30 1   
     3     1    31 1   
     4     1    32 1   
     5     2     3 1   
     6     2     4 1   
     7     2     5 1   
     8     3    33 1   
     9     3    34 1   
    10     3    35 1   
    11     4    36 1   
    12     5     6 2   
    13     5     7 1   
    14     7     8 2   
    15     7    37 1   
    16     8     9 1   
    17     8    38 1   
    18     9    10 1   
    19     9    11 2   
    20    10    39 1   
    21    10    40 1   
    22    10    41 1   
    23    11    12 1   
    24    11    42 1   
    25    12    13 1   
    26    12    43 1   
    27    12    44 1   
    28    13    14 1   
    29    13    45 1   
    30    13    46 1   
    31    14    15 1   
    32    14    16 2   
    33    15    47 1   
    34    15    48 1   
    35    15    49 1   
    36    16    17 1   
    37    16    50 1   
    38    17    18 1   
    39    17    51 1   
    40    17    52 1   
    41    18    19 ar  
    42    18    28 ar  
    43    19    20 1   
    44    19    21 ar  
    45    20    53 1   
    46    21    22 1   
    47    21    24 ar  
    48    22    23 2   
    49    22    54 1   
    50    24    25 1   
    51    24    26 ar  
    52    25    55 1   
    53    25    56 1   
    54    25    57 1   
    55    26    27 1   
    56    26    28 ar  
    57    28    29 1   
    58    29    58 1   
@<TRIPOS>SUBSTRUCTURE
     1 9BX         1 TEMP              0 ****  ****    0 ROOT
