@<TRIPOS>MOLECULE
9BX
   58    58     1     0     0
SMALL
abcg2


@<TRIPOS>ATOM
      1 CAU         -3.4460     3.5130     0.6500 c3         1 9BX      -0.096100
      2 CAT         -3.5320     2.1040     1.2260 c3         1 9BX       0.091000
      3 CAW         -2.4770     1.9040     2.3120 c3         1 9BX      -0.096100
      4 OAV         -4.7880     1.8850     1.8370 oh         1 9BX      -0.652000
      5 CAS         -3.2590     1.0470     0.1450 c          1 9BX       0.542300
      6 OAX         -2.5780     1.3190    -0.8240 o          1 9BX      -0.530100
      7 CAR         -3.8040    -0.3040     0.3730 ce         1 9BX      -0.316200
      8 CAQ         -3.4000    -1.3330    -0.3890 cf         1 9BX      -0.094000
      9 CAO         -3.8040    -2.7200    -0.2400 cf         1 9BX      -0.105200
     10 CAP         -4.9620    -3.0360     0.6610 c3         1 9BX      -0.051900
     11 CAN         -3.1220    -3.6920    -0.8740 c2         1 9BX      -0.180200
     12 CAM         -1.8980    -3.5070    -1.7180 c3         1 9BX      -0.047200
     13 CAL         -0.6320    -3.3970    -0.8450 c3         1 9BX      -0.041200
     14 CAJ          0.6190    -3.1990    -1.6590 c2         1 9BX      -0.117400
     15 CAK          1.3240    -4.4570    -2.0720 c3         1 9BX      -0.052900
     16 CAI          1.0720    -1.9980    -2.0270 c2         1 9BX      -0.208200
     17 CAH          0.4380    -0.6670    -1.7310 c3         1 9BX       0.027100
     18 CAG          1.3170     0.2270    -0.8940 ca         1 9BX      -0.176300
     19 CAY          1.1360     0.3390     0.4840 ca         1 9BX       0.278100
     20 OAZ          0.1670    -0.3710     1.0440 oh         1 9BX      -0.537100
     21 CBA          1.9570     1.1870     1.2680 ca         1 9BX      -0.366600
     22 CBB          1.7140     1.2760     2.6880 c          1 9BX       0.603500
     23 OBC          0.8270     0.6590     3.2760 o          1 9BX      -0.579100
     24 CAB          2.9960     1.9340     0.6670 ca         1 9BX       0.078700
     25 CAA          3.8670     2.8300     1.5000 c3         1 9BX      -0.066800
     26 CAC          3.1660     1.8050    -0.6940 ca         1 9BX      -0.045000
     27 CLA          4.4090     2.6760    -1.5460 cl         1 9BX      -0.207000
     28 CAE          2.3430     0.9630    -1.4730 ca         1 9BX       0.237100
     29 OAF          2.5120     0.8370    -2.7860 oh         1 9BX      -0.515100
     30 H1          -2.4610     3.7210     0.2380 hc         1 9BX       0.048533
     31 H2          -4.1810     3.6710    -0.1430 hc         1 9BX       0.048533
     32 H3          -3.6390     4.2410     1.4390 hc         1 9BX       0.048533
     33 H4          -2.6260     2.6290     3.1130 hc         1 9BX       0.048533
     34 H5          -2.5230     0.9030     2.7440 hc         1 9BX       0.048533
     35 H6          -1.4780     2.0510     1.9050 hc         1 9BX       0.048533
     36 H7          -5.4830     2.0880     1.2020 ho         1 9BX       0.444000
     37 H8          -4.4920    -0.4480     1.1940 ha         1 9BX       0.199000
     38 H10         -2.6890    -1.1160    -1.1790 ha         1 9BX       0.190000
     39 H11         -5.8640    -2.5070     0.3470 hc         1 9BX       0.042700
     40 H12         -5.1800    -4.1030     0.6630 hc         1 9BX       0.042700
     41 H13         -4.7600    -2.7360     1.6910 hc         1 9BX       0.042700
     42 H14         -3.4350    -4.7180    -0.7070 ha         1 9BX       0.170000
     43 H16         -1.7970    -4.3520    -2.4020 hc         1 9BX       0.050200
     44 H17         -1.9730    -2.6160    -2.3440 hc         1 9BX       0.050200
     45 H18         -0.7620    -2.5790    -0.1340 hc         1 9BX       0.053200
     46 H19         -0.5370    -4.3060    -0.2440 hc         1 9BX       0.053200
     47 H21          0.6450    -5.1320    -2.5990 hc         1 9BX       0.037700
     48 H22          2.1730    -4.2590    -2.7260 hc         1 9BX       0.037700
     49 H23          1.6870    -5.0060    -1.1990 hc         1 9BX       0.037700
     50 H24          1.9790    -1.9580    -2.6240 ha         1 9BX       0.170000
     51 H26          0.2110    -0.1650    -2.6750 hc         1 9BX       0.066200
     52 H27         -0.5180    -0.7910    -1.2280 hc         1 9BX       0.066200
     53 H28          0.1610    -0.1710     2.0110 ho         1 9BX       0.519000
     54 H29          2.3660     1.9380     3.2690 h4         1 9BX       0.006200
     55 H30          4.3390     2.2770     2.3120 hc         1 9BX       0.057367
     56 H31          4.6590     3.2890     0.9170 hc         1 9BX       0.057367
     57 H32          3.2830     3.6360     1.9460 hc         1 9BX       0.057367
     58 H33          3.2480     1.3770    -3.1060 ho         1 9BX       0.485000
@<TRIPOS>BOND
     1     1     2 1   
     2     1    30 1   
     3     1    31 1   
     4     1    32 1   
     5     2     3 1   
     6     2     4 1   
     7     2     5 1   
     8     3    33 1   
     9     3    34 1   
    10     3    35 1   
    11     4    36 1   
    12     5     6 2   
    13     5     7 1   
    14     7     8 2   
    15     7    37 1   
    16     8     9 1   
    17     8    38 1   
    18     9    10 1   
    19     9    11 2   
    20    10    39 1   
    21    10    40 1   
    22    10    41 1   
    23    11    12 1   
    24    11    42 1   
    25    12    13 1   
    26    12    43 1   
    27    12    44 1   
    28    13    14 1   
    29    13    45 1   
    30    13    46 1   
    31    14    15 1   
    32    14    16 2   
    33    15    47 1   
    34    15    48 1   
    35    15    49 1   
    36    16    17 1   
    37    16    50 1   
    38    17    18 1   
    39    17    51 1   
    40    17    52 1   
    41    18    19 ar  
    42    18    28 ar  
    43    19    20 1   
    44    19    21 ar  
    45    20    53 1   
    46    21    22 1   
    47    21    24 ar  
    48    22    23 2   
    49    22    54 1   
    50    24    25 1   
    51    24    26 ar  
    52    25    55 1   
    53    25    56 1   
    54    25    57 1   
    55    26    27 1   
    56    26    28 ar  
    57    28    29 1   
    58    29    58 1   
@<TRIPOS>SUBSTRUCTURE
     1 9BX         1 TEMP              0 ****  ****    0 ROOT
