@<TRIPOS>MOLECULE
9BY
   26    28     1     0     0
SMALL
bcc


@<TRIPOS>ATOM
      1 N3           2.2870     0.3320    -0.7410 nc         1 9BY      -0.594000
      2 C4          -1.9800    -0.0990    -0.4200 ca         1 9BY      -0.077200
      3 N2          -0.6900     0.3440    -0.5610 na         1 9BY      -0.058300
      4 C7           0.1090    -0.6800    -0.1510 cc         1 9BY       0.407800
      5 C6          -3.0280    -2.1710     0.2890 ca         1 9BY      -0.085000
      6 C9           0.2270     2.4380     0.4510 c          1 9BY       0.928600
      7 C1          -4.2520    -1.5740     0.0510 ca         1 9BY      -0.170000
      8 C2          -4.3400    -0.2540    -0.4170 ca         1 9BY      -0.146000
      9 C3          -3.2100     0.5060    -0.6630 ca         1 9BY      -0.108000
     10 C5          -1.8770    -1.4170     0.0530 ca         1 9BY       0.072400
     11 N1          -0.5600    -1.7500     0.2040 nd         1 9BY      -0.622100
     12 O1           0.5650     3.6200     0.2530 o          1 9BY      -0.816800
     13 O2           0.2650     1.7940     1.5090 o          1 9BY      -0.816800
     14 C10          1.5650    -0.6390    -0.1080 cc         1 9BY       0.378000
     15 C11          2.3120    -1.5800     0.5410 cd         1 9BY      -0.161400
     16 S1           3.9700    -1.2290     0.3580 ss         1 9BY      -0.247300
     17 C12          3.5540     0.1500    -0.5800 cd         1 9BY       0.420300
     18 H1          -2.9590    -3.1880     0.6520 ha         1 9BY       0.126000
     19 H2           0.4240     1.7670    -1.6030 h1         1 9BY       0.051200
     20 H3          -1.2000     2.2430    -1.1660 h1         1 9BY       0.051200
     21 H4          -5.1620    -2.1320     0.2290 ha         1 9BY       0.109000
     22 H5          -5.3160     0.1800    -0.5930 ha         1 9BY       0.110000
     23 H6          -3.2940     1.5220    -1.0270 ha         1 9BY       0.135000
     24 H8           1.9660    -2.4330     1.1010 h4         1 9BY       0.189000
     25 H9           4.3160     0.7960    -0.9920 h5         1 9BY       0.044100
     26 C8          -0.3150     1.7180    -0.8060 c3         1 9BY      -0.119700
@<TRIPOS>BOND
     1     1    14 1   
     2     1    17 2   
     3     2     3 1   
     4     2     9 ar  
     5     2    10 ar  
     6     3     4 1   
     7     3    26 1   
     8     4    11 2   
     9     4    14 1   
    10     5     7 ar  
    11     5    10 ar  
    12     5    18 1   
    13     6    12 1   
    14     6    13 1   
    15     6    26 1   
    16     7     8 ar  
    17     7    21 1   
    18     8     9 ar  
    19     8    22 1   
    20     9    23 1   
    21    10    11 1   
    22    14    15 2   
    23    15    16 1   
    24    15    24 1   
    25    16    17 1   
    26    17    25 1   
    27    19    26 1   
    28    20    26 1   
@<TRIPOS>SUBSTRUCTURE
     1 9BY         1 TEMP              0 ****  ****    0 ROOT
