@<TRIPOS>MOLECULE
9BY
   26    28     1     0     0
SMALL
No Charge or Current Charge


@<TRIPOS>ATOM
      1 N3           2.3720     0.4420    -0.4500 nc         1 9BY      -0.594000
      2 C4          -1.9660    -0.1310    -0.3420 ca         1 9BY      -0.077200
      3 N2          -0.6780     0.3200    -0.4640 na         1 9BY      -0.087600
      4 C7           0.1690    -0.7520    -0.0950 cc         1 9BY       0.407800
      5 C6          -3.0480    -2.1870     0.2980 ca         1 9BY      -0.067000
      6 C9           0.0890     2.6420     0.2740 c          1 9BY       0.718000
      7 C1          -4.3020    -1.5760     0.0830 ca         1 9BY      -0.152000
      8 C2          -4.3760    -0.2300    -0.3440 ca         1 9BY      -0.128000
      9 C3          -3.1970     0.5130    -0.5620 ca         1 9BY      -0.090000
     10 C5          -1.8880    -1.4300     0.0760 ca         1 9BY       0.072400
     11 N1          -0.5710    -1.8430     0.2360 nd         1 9BY      -0.622100
     12 O1           0.5580     3.7290    -0.0320 o          1 9BY      -0.711500
     13 O2          -0.0750     2.2850     1.4340 o          1 9BY      -0.711500
     14 C10          1.6320    -0.6670    -0.0920 cc         1 9BY       0.312700
     15 C11          2.3690    -1.7670     0.2880 cd         1 9BY      -0.223000
     16 S1           4.0880    -1.4310     0.2120 ss         1 9BY      -0.102400
     17 C12          3.6710     0.1900    -0.3370 cd         1 9BY       0.420300
     18 H1          -2.9810    -3.2200     0.6300 ha         1 9BY       0.108000
     19 H2           0.4430     1.6850    -1.6250 h1         1 9BY       0.051200
     20 H3          -1.2230     2.1720    -1.3540 h1         1 9BY       0.051200
     21 H4          -5.2150    -2.1430     0.2490 ha         1 9BY       0.091000
     22 H5          -5.3460     0.2350    -0.5050 ha         1 9BY       0.092000
     23 H6          -3.2550     1.5490    -0.8860 ha         1 9BY       0.117000
     24 H8           2.0040    -2.7360     0.6040 h4         1 9BY       0.171000
     25 H9           4.4580     0.9000    -0.5590 h5         1 9BY       0.044100
     26 C8          -0.3540     1.7110    -0.8740 c3         1 9BY      -0.090400
@<TRIPOS>BOND
     1     1    14 1   
     2     1    17 2   
     3     2     3 1   
     4     2     9 ar  
     5     2    10 ar  
     6     3     4 1   
     7     3    26 1   
     8     4    11 2   
     9     4    14 1   
    10     5     7 ar  
    11     5    10 ar  
    12     5    18 1   
    13     6    12 1   
    14     6    13 1   
    15     6    26 1   
    16     7     8 ar  
    17     7    21 1   
    18     8     9 ar  
    19     8    22 1   
    20     9    23 1   
    21    10    11 1   
    22    14    15 2   
    23    15    16 1   
    24    15    24 1   
    25    16    17 1   
    26    17    25 1   
    27    19    26 1   
    28    20    26 1   
@<TRIPOS>SUBSTRUCTURE
     1 9BY         1 TEMP              0 ****  ****    0 ROOT
