@<TRIPOS>MOLECULE
9BZ
   29    30     1     0     0
SMALL
No Charge or Current Charge


@<TRIPOS>ATOM
      1 O11          1.3100    -1.6580     1.9380 o          1 9BZ      -0.712000
      2 C09          1.3960    -1.7840     0.7200 c          1 9BZ       0.719000
      3 O10          1.8710    -2.7990     0.2240 o          1 9BZ      -0.712000
      4 C08          0.7720    -0.6850    -0.2500 c5         1 9BZ       0.110500
      5 N07         -0.5370    -0.0350     0.2080 n3         1 9BZ      -0.834600
      6 C03         -1.2820     0.5660    -0.9430 c5         1 9BZ       0.425500
      7 C02         -1.9500    -0.4820    -1.8770 c3         1 9BZ       0.090600
      8 S01         -2.7820    -1.9150    -1.0280 sh         1 9BZ      -0.552800
      9 S04         -2.5730     1.6000    -0.1080 ss         1 9BZ      -0.501000
     10 C05         -1.4410     1.8980     1.3480 c5         1 9BZ       0.058600
     11 C06         -0.1450     1.0640     1.1130 c5         1 9BZ       0.423500
     12 S13          1.0990     2.0470     0.1580 ss         1 9BZ      -0.506000
     13 C12          1.8310     0.4790    -0.5350 c5         1 9BZ       0.128000
     14 C15          3.2260     0.3110     0.1320 c3         1 9BZ      -0.071600
     15 C14          2.0700     0.6840    -2.0550 c3         1 9BZ      -0.071600
     16 H2           0.5950    -1.2390    -1.1810 h1         1 9BZ       0.047700
     17 H4          -0.6660     1.2400    -1.5490 h2         1 9BZ       0.047700
     18 H5          -2.6800     0.0250    -2.5190 h1         1 9BZ       0.064200
     19 H6          -1.1730    -0.8940    -2.5320 h1         1 9BZ       0.064200
     20 H7          -2.0290    -1.7530     0.1020 hs         1 9BZ       0.332800
     21 H8          -1.2200     2.9670     1.4620 h1         1 9BZ       0.068200
     22 H9          -1.9490     1.5600     2.2590 h1         1 9BZ       0.068200
     23 H10          0.2960     0.7120     2.0560 h2         1 9BZ       0.095700
     24 H11          3.1500     0.2620     1.2240 hc         1 9BZ       0.036200
     25 H12          3.7330    -0.5960    -0.2170 hc         1 9BZ       0.036200
     26 H13          3.8800     1.1600    -0.1020 hc         1 9BZ       0.036200
     27 H14          2.7260     1.5420    -2.2450 hc         1 9BZ       0.036200
     28 H15          2.5430    -0.2000    -2.5000 hc         1 9BZ       0.036200
     29 H16          1.1370     0.8600    -2.5990 hc         1 9BZ       0.036200
@<TRIPOS>BOND
     1     1     2 1   
     2     2     3 1   
     3     2     4 1   
     4     4     5 1   
     5     4    13 1   
     6     4    16 1   
     7     5     6 1   
     8     5    11 1   
     9     6     7 1   
    10     6     9 1   
    11     6    17 1   
    12     7     8 1   
    13     7    18 1   
    14     7    19 1   
    15     8    20 1   
    16     9    10 1   
    17    10    11 1   
    18    10    21 1   
    19    10    22 1   
    20    11    12 1   
    21    11    23 1   
    22    12    13 1   
    23    13    14 1   
    24    13    15 1   
    25    14    24 1   
    26    14    25 1   
    27    14    26 1   
    28    15    27 1   
    29    15    28 1   
    30    15    29 1   
@<TRIPOS>SUBSTRUCTURE
     1 9BZ         1 TEMP              0 ****  ****    0 ROOT
