@<TRIPOS>MOLECULE
9BZ
   29    30     1     0     0
SMALL
abcg2


@<TRIPOS>ATOM
      1 O11          0.5790    -2.0950     1.2430 o          1 9BZ      -0.712000
      2 C09          1.2150    -1.8680     0.1950 c          1 9BZ       0.719000
      3 O10          2.0540    -2.6160    -0.3440 o          1 9BZ      -0.712000
      4 C08          0.9510    -0.5280    -0.5330 c5         1 9BZ       0.110500
      5 N07         -0.3180     0.0610    -0.2040 n3         1 9BZ      -0.834600
      6 C03         -1.3880     0.1230    -1.1480 c5         1 9BZ       0.425500
      7 C02         -2.2410    -1.1450    -1.1900 c3         1 9BZ       0.090600
      8 S01         -2.7840    -1.7080     0.4440 sh         1 9BZ      -0.552800
      9 S04         -2.4120     1.5620    -0.6550 ss         1 9BZ      -0.501000
     10 C05         -1.1230     2.2190     0.4360 c5         1 9BZ       0.058600
     11 C06         -0.3550     0.9800     0.8940 c5         1 9BZ       0.423500
     12 S13          1.3910     1.3110     1.3200 ss         1 9BZ      -0.506000
     13 C12          2.0140     0.5630    -0.2390 c5         1 9BZ       0.128000
     14 C15          3.4320     0.0660    -0.0030 c3         1 9BZ      -0.071600
     15 C14          2.0110     1.5990    -1.3600 c3         1 9BZ      -0.071600
     16 H2           0.9720    -0.7300    -1.6110 h1         1 9BZ       0.047700
     17 H4          -1.0020     0.2860    -2.1630 h2         1 9BZ       0.047700
     18 H5          -3.1350    -0.9930    -1.7980 h1         1 9BZ       0.064200
     19 H6          -1.6650    -1.9390    -1.6700 h1         1 9BZ       0.064200
     20 H7          -1.5430    -1.8570     0.9450 hs         1 9BZ       0.332800
     21 H8          -0.4790     2.9140    -0.1020 h1         1 9BZ       0.068200
     22 H9          -1.5870     2.7450     1.2680 h1         1 9BZ       0.068200
     23 H10         -0.8300     0.5650     1.7900 h2         1 9BZ       0.095700
     24 H11          3.5010    -0.6140     0.8440 hc         1 9BZ       0.036200
     25 H12          3.8010    -0.4550    -0.8870 hc         1 9BZ       0.036200
     26 H13          4.0980     0.9090     0.1870 hc         1 9BZ       0.036200
     27 H14          2.6080     2.4700    -1.0870 hc         1 9BZ       0.036200
     28 H15          2.4370     1.1700    -2.2700 hc         1 9BZ       0.036200
     29 H16          1.0040     1.9420    -1.5960 hc         1 9BZ       0.036200
@<TRIPOS>BOND
     1     1     2 1   
     2     2     3 1   
     3     2     4 1   
     4     4     5 1   
     5     4    13 1   
     6     4    16 1   
     7     5     6 1   
     8     5    11 1   
     9     6     7 1   
    10     6     9 1   
    11     6    17 1   
    12     7     8 1   
    13     7    18 1   
    14     7    19 1   
    15     8    20 1   
    16     9    10 1   
    17    10    11 1   
    18    10    21 1   
    19    10    22 1   
    20    11    12 1   
    21    11    23 1   
    22    12    13 1   
    23    13    14 1   
    24    13    15 1   
    25    14    24 1   
    26    14    25 1   
    27    14    26 1   
    28    15    27 1   
    29    15    28 1   
    30    15    29 1   
@<TRIPOS>SUBSTRUCTURE
     1 9BZ         1 TEMP              0 ****  ****    0 ROOT
