@<TRIPOS>MOLECULE
9C0
   42    44     1     0     0
SMALL
abcg2


@<TRIPOS>ATOM
      1 C4           2.4770     0.4020     0.9790 ca         1 9C0      -0.113500
      2 C5           0.7170    -0.9400     0.0070 ca         1 9C0      -0.034000
      3 C6           3.3980    -0.0220     0.0220 ca         1 9C0      -0.051300
      4 C7          -2.1730    -3.3640    -0.0100 cc         1 9C0      -0.186000
      5 C8          -0.8720    -2.8280    -0.0110 cc         1 9C0      -0.035000
      6 C10         -0.6570    -1.4790     0.0110 cd         1 9C0      -0.061000
      7 C13         -4.0690     0.9460     0.7910 c6         1 9C0      -0.401400
      8 C17          4.8440     0.4590    -0.0110 c3         1 9C0      -0.000700
      9 C1           1.6320    -1.3750    -0.9510 ca         1 9C0      -0.077500
     10 C2           1.1620    -0.0400     0.9710 ca         1 9C0      -0.077500
     11 C3           2.9420    -0.9220    -0.9420 ca         1 9C0      -0.113500
     12 C9          -3.2150    -2.5020     0.0180 cd         1 9C0      -0.065000
     13 C11         -1.7810    -0.5810     0.0170 cd         1 9C0       0.212000
     14 C12         -4.2310    -0.3150    -0.0250 c6         1 9C0       0.065600
     15 C14          5.1560     1.4320     1.1260 c3         1 9C0      -0.083100
     16 C16          5.7870    -0.7460     0.1120 c3         1 9C0      -0.083100
     17 N18         -1.5520     0.7130     0.0070 ne         1 9C0      -0.545600
     18 N19         -3.0280    -1.1550     0.0290 na         1 9C0      -0.061000
     19 S22         -2.6960     1.8410     0.0930 sy         1 9C0       1.268600
     20 H1           2.7730     1.0910     1.7580 ha         1 9C0       0.114000
     21 H2          -2.3490    -4.4290    -0.0150 ha         1 9C0       0.142000
     22 H3          -0.0230    -3.4990    -0.0080 ha         1 9C0       0.135000
     23 H4          -4.9660     1.5620     0.7300 h1         1 9C0       0.117700
     24 H5          -3.8480     0.7320     1.8370 h1         1 9C0       0.117700
     25 H6           4.4410     2.0280    -1.4720 hc         1 9C0       0.035478
     26 H7           6.1350     1.5400    -1.3800 hc         1 9C0       0.035478
     27 H8           4.9660     0.5080    -2.1980 hc         1 9C0       0.035478
     28 H9           1.3170    -2.0640    -1.7250 ha         1 9C0       0.115000
     29 H10          0.4830     0.3200     1.7310 ha         1 9C0       0.115000
     30 H11          3.6110    -1.2820    -1.7130 ha         1 9C0       0.114000
     31 H12         -4.2430    -2.8310     0.0340 h4         1 9C0       0.142000
     32 H13         -5.0640    -0.8930     0.3670 h1         1 9C0       0.079200
     33 H14         -4.4510    -0.0800    -1.0680 h1         1 9C0       0.079200
     34 H15          4.5370     2.3300     1.0810 hc         1 9C0       0.035478
     35 H16          5.0160     0.9740     2.1070 hc         1 9C0       0.035478
     36 H17          6.1970     1.7520     1.0620 hc         1 9C0       0.035478
     37 H18          6.8270    -0.4130     0.0920 hc         1 9C0       0.035478
     38 H19          5.6240    -1.2830     1.0480 hc         1 9C0       0.035478
     39 H20          5.6540    -1.4530    -0.7080 hc         1 9C0       0.035478
     40 O20         -2.2520     2.8750     1.0180 o          1 9C0      -0.534000
     41 C15          5.1070     1.1730    -1.3440 c3         1 9C0      -0.083100
     42 O21         -3.0780     2.2820    -1.2480 o          1 9C0      -0.534000
@<TRIPOS>BOND
     1     1     3 ar  
     2     1    10 ar  
     3     1    20 1   
     4     2     6 1   
     5     2     9 ar  
     6     2    10 ar  
     7     3     8 1   
     8     3    11 ar  
     9     4     5 1   
    10     4    12 2   
    11     4    21 1   
    12     5     6 2   
    13     5    22 1   
    14     6    13 1   
    15     7    14 1   
    16     7    19 1   
    17     7    23 1   
    18     7    24 1   
    19     8    15 1   
    20     8    16 1   
    21     8    41 1   
    22     9    11 ar  
    23     9    28 1   
    24    10    29 1   
    25    11    30 1   
    26    12    18 1   
    27    12    31 1   
    28    13    17 2   
    29    13    18 1   
    30    14    18 1   
    31    14    32 1   
    32    14    33 1   
    33    15    34 1   
    34    15    35 1   
    35    15    36 1   
    36    16    37 1   
    37    16    38 1   
    38    16    39 1   
    39    17    19 1   
    40    19    40 2   
    41    19    42 2   
    42    25    41 1   
    43    26    41 1   
    44    27    41 1   
@<TRIPOS>SUBSTRUCTURE
     1 9C0         1 TEMP              0 ****  ****    0 ROOT
