@<TRIPOS>MOLECULE
9C0
   42    44     1     0     0
SMALL
No Charge or Current Charge


@<TRIPOS>ATOM
      1 C4           2.4460     0.6270     0.7590 ca         1 9C0      -0.113500
      2 C5           0.7300    -0.9280    -0.0640 ca         1 9C0      -0.034000
      3 C6           3.4490    -0.0020    -0.0150 ca         1 9C0      -0.051300
      4 C7          -2.2200    -3.2980    -0.3830 cc         1 9C0      -0.186000
      5 C8          -0.9040    -2.7750    -0.2970 cc         1 9C0      -0.035000
      6 C10         -0.6750    -1.4350    -0.0810 cd         1 9C0      -0.061000
      7 C13         -4.1420     0.8240     1.0760 c6         1 9C0      -0.401400
      8 C17          4.9290     0.4690    -0.0220 c3         1 9C0      -0.000700
      9 C1           1.7350    -1.5660    -0.8220 ca         1 9C0      -0.077500
     10 C2           1.1170     0.1700     0.7350 ca         1 9C0      -0.077500
     11 C3           3.0630    -1.1080    -0.8020 ca         1 9C0      -0.113500
     12 C9          -3.3470    -2.5190    -0.2690 cd         1 9C0      -0.065000
     13 C11         -1.8630    -0.5860    -0.0390 cd         1 9C0       0.212000
     14 C12         -4.3870    -0.2900     0.0490 c6         1 9C0       0.065600
     15 C14          5.1810     1.6980     0.8980 c3         1 9C0      -0.083100
     16 C16          5.8380    -0.6900     0.4700 c3         1 9C0      -0.083100
     17 N18         -1.6870     0.7180    -0.0380 ne         1 9C0      -0.545600
     18 N19         -3.1790    -1.1350    -0.0790 na         1 9C0      -0.061000
     19 S22         -2.7810     1.8390     0.5130 sy         1 9C0       1.268600
     20 H1           2.6710     1.4730     1.4000 ha         1 9C0       0.114000
     21 H2          -2.3270    -4.3680    -0.5370 ha         1 9C0       0.142000
     22 H3          -0.0850    -3.4820    -0.3720 ha         1 9C0       0.135000
     23 H4          -5.0010     1.4940     1.1910 h1         1 9C0       0.117700
     24 H5          -3.8370     0.4190     2.0480 h1         1 9C0       0.117700
     25 H6           4.6780     1.6570    -1.8490 hc         1 9C0       0.035478
     26 H7           6.3660     1.2340    -1.4990 hc         1 9C0       0.035478
     27 H8           5.2680     0.0120    -2.1540 hc         1 9C0       0.035478
     28 H9           1.4940    -2.4070    -1.4670 ha         1 9C0       0.115000
     29 H10          0.3960     0.6630     1.3810 ha         1 9C0       0.115000
     30 H11          3.7960    -1.6270    -1.4150 ha         1 9C0       0.114000
     31 H12         -4.3590    -2.9050    -0.3230 h4         1 9C0       0.142000
     32 H13         -5.2370    -0.9080     0.3740 h1         1 9C0       0.079200
     33 H14         -4.6390     0.1310    -0.9360 h1         1 9C0       0.079200
     34 H15          4.5790     2.5590     0.5820 hc         1 9C0       0.035478
     35 H16          4.9400     1.4670     1.9420 hc         1 9C0       0.035478
     36 H17          6.2340     2.0020     0.8630 hc         1 9C0       0.035478
     37 H18          6.8880    -0.3760     0.5070 hc         1 9C0       0.035478
     38 H19          5.5440    -1.0110     1.4770 hc         1 9C0       0.035478
     39 H20          5.7770    -1.5610    -0.1930 hc         1 9C0       0.035478
     40 O20         -2.2390     2.5030     1.7050 o          1 9C0      -0.534000
     41 C15          5.3340     0.8640    -1.4680 c3         1 9C0      -0.083100
     42 O21         -3.2880     2.6140    -0.6260 o          1 9C0      -0.534000
@<TRIPOS>BOND
     1     1     3 ar  
     2     1    10 ar  
     3     1    20 1   
     4     2     6 1   
     5     2     9 ar  
     6     2    10 ar  
     7     3     8 1   
     8     3    11 ar  
     9     4     5 1   
    10     4    12 2   
    11     4    21 1   
    12     5     6 2   
    13     5    22 1   
    14     6    13 1   
    15     7    14 1   
    16     7    19 1   
    17     7    23 1   
    18     7    24 1   
    19     8    15 1   
    20     8    16 1   
    21     8    41 1   
    22     9    11 ar  
    23     9    28 1   
    24    10    29 1   
    25    11    30 1   
    26    12    18 1   
    27    12    31 1   
    28    13    17 2   
    29    13    18 1   
    30    14    18 1   
    31    14    32 1   
    32    14    33 1   
    33    15    34 1   
    34    15    35 1   
    35    15    36 1   
    36    16    37 1   
    37    16    38 1   
    38    16    39 1   
    39    17    19 1   
    40    19    40 2   
    41    19    42 2   
    42    25    41 1   
    43    26    41 1   
    44    27    41 1   
@<TRIPOS>SUBSTRUCTURE
     1 9C0         1 TEMP              0 ****  ****    0 ROOT
