@<TRIPOS>MOLECULE
9C1
   34    34     1     0     0
SMALL
abcg2


@<TRIPOS>ATOM
      1 C10         -2.8910     0.5960    -0.1950 ce         1 9C1      -0.279200
      2 C11         -4.0550     0.6790     0.4430 c2         1 9C1      -0.155200
      3 C12         -5.3410     0.9330    -0.2500 c3         1 9C1       0.152800
      4 C3           1.7330     1.2570    -0.1900 c6         1 9C1       0.161300
      5 C4           3.1720     0.9390     0.2010 c6         1 9C1       0.096300
      6 O14         -1.5830     0.1890     1.7500 o          1 9C1      -0.586100
      7 C5           3.5760    -0.4260    -0.3670 c6         1 9C1       0.155300
      8 O5           2.6670    -1.4040     0.0940 os         1 9C1      -0.469000
      9 C1           1.3490    -1.2040    -0.3530 c6         1 9C1       0.384300
     10 C2           0.8070     0.1130     0.2090 c6         1 9C1       0.084700
     11 N2          -0.5330     0.3530    -0.2530 ns         1 9C1      -0.486900
     12 C09         -1.6210     0.3590     0.5390 c          1 9C1       0.617300
     13 CL13        -6.4590    -0.4610     0.0290 cl         1 9C1      -0.275000
     14 O4           3.9770     1.9810    -0.3050 oh         1 9C1      -0.724000
     15 H1A         -2.8500     0.6980    -1.2750 ha         1 9C1       0.174000
     16 H2A         -4.0940     0.5740     1.5210 ha         1 9C1       0.212000
     17 H3A         -5.8440     1.8120     0.1490 h1         1 9C1       0.072200
     18 H4A         -5.2220     1.0430    -1.3250 h1         1 9C1       0.072200
     19 H3           1.7050     1.3550    -1.2890 h1         1 9C1       0.035700
     20 H4           3.2300     0.8920     1.2990 h1         1 9C1       0.063700
     21 HO6          6.2160    -2.2530    -0.3450 ho         1 9C1       0.506000
     22 H5           3.5510    -0.3680    -1.4680 h1         1 9C1       0.057700
     23 H1           1.3430    -1.1560    -1.4560 h2         1 9C1       0.011700
     24 H2           0.7820     0.0350     1.2990 h1         1 9C1       0.122700
     25 HN21        -0.6630     0.5090    -1.2410 hn         1 9C1       0.307500
     26 HO4          4.7230     2.1180     0.2840 ho         1 9C1       0.513000
     27 O1           0.5670    -2.2360     0.1120 oh         1 9C1      -0.620000
     28 HO1          0.7050    -3.0140    -0.4400 ho         1 9C1       0.460000
     29 O3           1.2680     2.4280     0.4250 oh         1 9C1      -0.641000
     30 C6           4.9660    -0.8360     0.0670 c3         1 9C1       0.170600
     31 H61          4.9860    -0.9330     1.1610 h1         1 9C1       0.027200
     32 O6           5.3060    -2.0420    -0.5730 oh         1 9C1      -0.706000
     33 H62          5.6610    -0.0310    -0.1990 h1         1 9C1       0.027200
     34 HO3          1.8670     3.1440     0.1860 ho         1 9C1       0.457000
@<TRIPOS>BOND
     1     1     2 2   
     2     1    12 1   
     3     1    15 1   
     4     2     3 1   
     5     2    16 1   
     6     3    13 1   
     7     3    17 1   
     8     3    18 1   
     9     4     5 1   
    10     4    10 1   
    11     4    19 1   
    12     4    29 1   
    13     5     7 1   
    14     5    14 1   
    15     5    20 1   
    16     6    12 2   
    17     7     8 1   
    18     7    22 1   
    19     7    30 1   
    20     8     9 1   
    21     9    10 1   
    22     9    23 1   
    23     9    27 1   
    24    10    11 1   
    25    10    24 1   
    26    11    12 1   
    27    11    25 1   
    28    14    26 1   
    29    21    32 1   
    30    27    28 1   
    31    29    34 1   
    32    30    31 1   
    33    30    32 1   
    34    30    33 1   
@<TRIPOS>SUBSTRUCTURE
     1 9C1         1 TEMP              0 ****  ****    0 ROOT
