@<TRIPOS>MOLECULE
9C1
   34    34     1     0     0
SMALL
No Charge or Current Charge


@<TRIPOS>ATOM
      1 C10         -3.0170     0.6340    -0.0980 ce         1 9C1      -0.279200
      2 C11         -4.2360     0.5150     0.4850 c2         1 9C1      -0.155200
      3 C12         -5.5560     0.9110    -0.1420 c3         1 9C1       0.152800
      4 C3           1.7670     1.3220    -0.3060 c6         1 9C1       0.161300
      5 C4           3.2390     0.9840     0.0810 c6         1 9C1       0.096300
      6 O14         -1.6880    -0.2730     1.6650 o          1 9C1      -0.586100
      7 C5           3.5840    -0.4480    -0.4390 c6         1 9C1       0.155300
      8 O5           2.6200    -1.3960     0.0890 os         1 9C1      -0.469000
      9 C1           1.2730    -1.1480    -0.3200 c6         1 9C1       0.384300
     10 C2           0.7840     0.2350     0.2220 c6         1 9C1       0.084700
     11 N2          -0.6150     0.5430    -0.1740 ns         1 9C1      -0.486900
     12 C09         -1.7380     0.2430     0.5580 c          1 9C1       0.617300
     13 Cl13        -6.0020    -0.2440    -1.4710 cl         1 9C1      -0.275000
     14 O4           4.1260     1.9940    -0.4550 oh         1 9C1      -0.724000
     15 H1A         -2.9300     1.0520    -1.0990 ha         1 9C1       0.174000
     16 H2A         -4.3350     0.1040     1.4930 ha         1 9C1       0.212000
     17 H3A         -6.3640     0.8930     0.6010 h1         1 9C1       0.072200
     18 H4A         -5.4950     1.9160    -0.5780 h1         1 9C1       0.072200
     19 H3           1.7030     1.3300    -1.4050 h1         1 9C1       0.035700
     20 H4           3.3060     0.9710     1.1810 h1         1 9C1       0.063700
     21 HO6          6.1990    -2.4980    -0.0690 ho         1 9C1       0.506000
     22 H5           3.5270    -0.4610    -1.5380 h1         1 9C1       0.057700
     23 H1           1.2110    -1.1710    -1.4180 h2         1 9C1       0.011700
     24 H2           0.8460     0.2130     1.3190 h1         1 9C1       0.122700
     25 HN21        -0.7680     1.0100    -1.0580 hn         1 9C1       0.307500
     26 HO4          4.9480     1.9960     0.0910 ho         1 9C1       0.513000
     27 O1           0.5370    -2.2260     0.2200 oh         1 9C1      -0.620000
     28 HO1          1.2320    -2.8810     0.4390 ho         1 9C1       0.460000
     29 O3           1.4300     2.6260     0.1920 oh         1 9C1      -0.641000
     30 C6           5.0160    -0.9240    -0.0210 c3         1 9C1       0.170600
     31 H61          5.0970    -0.8450     1.0710 h1         1 9C1       0.027200
     32 O6           5.3150    -2.2700    -0.4410 oh         1 9C1      -0.706000
     33 H62          5.7500    -0.2310    -0.4540 h1         1 9C1       0.027200
     34 HO3          2.2330     3.1700     0.0200 ho         1 9C1       0.457000
@<TRIPOS>BOND
     1     1     2 2   
     2     1    12 1   
     3     1    15 1   
     4     2     3 1   
     5     2    16 1   
     6     3    13 1   
     7     3    17 1   
     8     3    18 1   
     9     4     5 1   
    10     4    10 1   
    11     4    19 1   
    12     4    29 1   
    13     5     7 1   
    14     5    14 1   
    15     5    20 1   
    16     6    12 2   
    17     7     8 1   
    18     7    22 1   
    19     7    30 1   
    20     8     9 1   
    21     9    10 1   
    22     9    23 1   
    23     9    27 1   
    24    10    11 1   
    25    10    24 1   
    26    11    12 1   
    27    11    25 1   
    28    14    26 1   
    29    21    32 1   
    30    27    28 1   
    31    29    34 1   
    32    30    31 1   
    33    30    32 1   
    34    30    33 1   
@<TRIPOS>SUBSTRUCTURE
     1 9C1         1 TEMP              0 ****  ****    0 ROOT
