@<TRIPOS>MOLECULE
9C3
   40    42     1     0     0
SMALL
No Charge or Current Charge


@<TRIPOS>ATOM
      1 C4           2.4590     0.1440     0.7920 ca         1 9C3      -0.181000
      2 C5           0.5670    -1.2250     0.0240 ca         1 9C3      -0.075000
      3 C6           3.3560    -0.6430     0.0420 ca         1 9C3       0.166100
      4 C7          -2.6550    -3.2210    -0.2100 cc         1 9C3      -0.183000
      5 C8          -1.2840    -2.8630    -0.1380 cc         1 9C3      -0.040000
      6 C10         -0.8900    -1.5530     0.0190 cd         1 9C3      -0.052000
      7 C13         -4.0500     1.1700     1.0490 c6         1 9C3      -0.400400
      8 C15          6.8490     0.4740     0.6350 c3         1 9C3      -0.108600
      9 C1           1.4860    -2.0190    -0.7030 ca         1 9C3      -0.038000
     10 C2           1.0830    -0.1460     0.7800 ca         1 9C3      -0.038000
     11 C3           2.8600    -1.7260    -0.6940 ca         1 9C3      -0.181000
     12 C9          -3.6760    -2.3030    -0.1390 cd         1 9C3      -0.068000
     13 C11         -1.9630    -0.5620     0.0150 cd         1 9C3       0.210000
     14 C12         -4.4310     0.0500     0.0710 c6         1 9C3       0.066600
     15 C14          5.0330     1.9540    -0.3960 c3         1 9C3      -0.108600
     16 C16          5.3400     0.7690     0.5470 c3         1 9C3       0.180300
     17 N17         -1.6260     0.7090    -0.0400 ne         1 9C3      -0.545600
     18 N18         -3.3370    -0.9440    -0.0100 na         1 9C3      -0.061000
     19 O21          4.7190    -0.4170     0.0140 os         1 9C3      -0.356100
     20 S22         -2.5730     1.9810     0.4520 sy         1 9C3       1.266600
     21 H1           2.8060     0.9740     1.3980 ha         1 9C3       0.123500
     22 H2          -2.8950    -4.2750    -0.3160 ha         1 9C3       0.142000
     23 H3          -0.5600    -3.6690    -0.1750 ha         1 9C3       0.135000
     24 H4          -4.8200     1.9460     1.1280 h1         1 9C3       0.117200
     25 H5          -3.8000     0.7750     2.0410 h1         1 9C3       0.117200
     26 H6           7.3870     1.3420     1.0340 hc         1 9C3       0.047867
     27 H7           7.0350    -0.3770     1.3010 hc         1 9C3       0.047867
     28 H8           7.2600     0.2380    -0.3540 hc         1 9C3       0.047867
     29 H9           1.1420    -2.8520    -1.3110 ha         1 9C3       0.115000
     30 H10          0.4280     0.4560     1.4020 ha         1 9C3       0.115000
     31 H11          3.5470    -2.3420    -1.2690 ha         1 9C3       0.123500
     32 H12         -4.7280    -2.5620    -0.1830 h4         1 9C3       0.142000
     33 H13         -5.3520    -0.4410     0.4170 h1         1 9C3       0.078700
     34 H14         -4.6260     0.4540    -0.9340 h1         1 9C3       0.078700
     35 H15          3.9600     2.1710    -0.4270 hc         1 9C3       0.047867
     36 H16          5.5470     2.8580    -0.0510 hc         1 9C3       0.047867
     37 H17          5.3710     1.7360    -1.4160 hc         1 9C3       0.047867
     38 H18          4.9780     0.9880     1.5600 h1         1 9C3       0.041700
     39 O19         -1.9540     2.6260     1.6170 o          1 9C3      -0.535000
     40 O20         -2.9760     2.7610    -0.7240 o          1 9C3      -0.535000
@<TRIPOS>BOND
     1     1     3 ar  
     2     1    10 ar  
     3     1    21 1   
     4     2     6 1   
     5     2     9 ar  
     6     2    10 ar  
     7     3    11 ar  
     8     3    19 1   
     9     4     5 1   
    10     4    12 2   
    11     4    22 1   
    12     5     6 2   
    13     5    23 1   
    14     6    13 1   
    15     7    14 1   
    16     7    20 1   
    17     7    24 1   
    18     7    25 1   
    19     8    16 1   
    20     8    26 1   
    21     8    27 1   
    22     8    28 1   
    23     9    11 ar  
    24     9    29 1   
    25    10    30 1   
    26    11    31 1   
    27    12    18 1   
    28    12    32 1   
    29    13    17 2   
    30    13    18 1   
    31    14    18 1   
    32    14    33 1   
    33    14    34 1   
    34    15    16 1   
    35    15    35 1   
    36    15    36 1   
    37    15    37 1   
    38    16    19 1   
    39    16    38 1   
    40    17    20 1   
    41    20    39 2   
    42    20    40 2   
@<TRIPOS>SUBSTRUCTURE
     1 9C3         1 TEMP              0 ****  ****    0 ROOT
