@<TRIPOS>MOLECULE
9C3
   40    42     1     0     0
SMALL
abcg2


@<TRIPOS>ATOM
      1 C4           2.4750    -0.0010     0.8620 ca         1 9C3      -0.181000
      2 C5           0.5470    -1.1900    -0.0030 ca         1 9C3      -0.075000
      3 C6           3.2880    -0.5670    -0.1220 ca         1 9C3       0.166100
      4 C7          -2.5930    -3.2740     0.1770 cc         1 9C3      -0.183000
      5 C8          -1.2400    -2.8890     0.1180 cc         1 9C3      -0.040000
      6 C10         -0.8760    -1.5730     0.0710 cd         1 9C3      -0.052000
      7 C13         -3.9690     1.2650     0.8080 c6         1 9C3      -0.400400
      8 C15          6.7530     0.3450     0.4320 c3         1 9C3      -0.108600
      9 C1           1.3720    -1.7560    -0.9750 ca         1 9C3      -0.038000
     10 C2           1.1240    -0.3090     0.9070 ca         1 9C3      -0.038000
     11 C3           2.7190    -1.4500    -1.0410 ca         1 9C3      -0.181000
     12 C9          -3.5300    -2.3000     0.1950 cd         1 9C3      -0.068000
     13 C11         -1.8930    -0.5550     0.0640 cd         1 9C3       0.210000
     14 C12         -4.3020    -0.0180     0.0830 c6         1 9C3       0.066600
     15 C14          4.9320     2.0450     0.0820 c3         1 9C3      -0.108600
     16 C16          5.2710     0.6380     0.5480 c3         1 9C3       0.180300
     17 N17         -1.5180     0.7030    -0.0170 ne         1 9C3      -0.545600
     18 N18         -3.1950    -0.9810     0.1410 na         1 9C3      -0.061000
     19 O21          4.6070    -0.3440    -0.2560 os         1 9C3      -0.356100
     20 S22         -2.5310     1.9520     0.0130 sy         1 9C3       1.266600
     21 H1           2.8740     0.6770     1.6030 ha         1 9C3       0.123500
     22 H2          -2.8870    -4.3110     0.2260 ha         1 9C3       0.142000
     23 H3          -0.4710    -3.6510     0.1270 ha         1 9C3       0.135000
     24 H4          -4.7940     1.9720     0.7310 h1         1 9C3       0.117200
     25 H5          -3.7340     1.0940     1.8590 h1         1 9C3       0.117200
     26 H6           7.3150     1.0370     1.0590 hc         1 9C3       0.047867
     27 H7           6.9850    -0.6670     0.7620 hc         1 9C3       0.047867
     28 H8           7.1010     0.4650    -0.5960 hc         1 9C3       0.047867
     29 H9           0.9520    -2.4380    -1.7040 ha         1 9C3       0.115000
     30 H10          0.5170     0.1450     1.6780 ha         1 9C3       0.115000
     31 H11          3.3400    -1.8920    -1.8100 ha         1 9C3       0.123500
     32 H12         -4.5880    -2.5100     0.2530 h4         1 9C3       0.142000
     33 H13         -5.1710    -0.4760     0.5480 h1         1 9C3       0.078700
     34 H14         -4.5450     0.1760    -0.9620 h1         1 9C3       0.078700
     35 H15          3.8660     2.2620     0.1510 hc         1 9C3       0.047867
     36 H16          5.4560     2.7740     0.7000 hc         1 9C3       0.047867
     37 H17          5.2450     2.1940    -0.9530 hc         1 9C3       0.047867
     38 H18          4.9740     0.5120     1.5950 h1         1 9C3       0.041700
     39 O19         -1.9490     2.9970     0.8440 o          1 9C3      -0.535000
     40 O20         -2.9090     2.3360    -1.3480 o          1 9C3      -0.535000
@<TRIPOS>BOND
     1     1     3 ar  
     2     1    10 ar  
     3     1    21 1   
     4     2     6 1   
     5     2     9 ar  
     6     2    10 ar  
     7     3    11 ar  
     8     3    19 1   
     9     4     5 1   
    10     4    12 2   
    11     4    22 1   
    12     5     6 2   
    13     5    23 1   
    14     6    13 1   
    15     7    14 1   
    16     7    20 1   
    17     7    24 1   
    18     7    25 1   
    19     8    16 1   
    20     8    26 1   
    21     8    27 1   
    22     8    28 1   
    23     9    11 ar  
    24     9    29 1   
    25    10    30 1   
    26    11    31 1   
    27    12    18 1   
    28    12    32 1   
    29    13    17 2   
    30    13    18 1   
    31    14    18 1   
    32    14    33 1   
    33    14    34 1   
    34    15    16 1   
    35    15    35 1   
    36    15    36 1   
    37    15    37 1   
    38    16    19 1   
    39    16    38 1   
    40    17    20 1   
    41    20    39 2   
    42    20    40 2   
@<TRIPOS>SUBSTRUCTURE
     1 9C3         1 TEMP              0 ****  ****    0 ROOT
