@<TRIPOS>MOLECULE
9C4
   25    25     1     0     0
SMALL
No Charge or Current Charge


@<TRIPOS>ATOM
      1 OAA          3.3560    -0.2060    -0.4700 o          1 9C4      -0.707000
      2 CAI          2.4550    -0.3430     0.3520 c          1 9C4       0.714000
      3 OAB          2.6540    -0.7190     1.5000 o          1 9C4      -0.707000
      4 CAN          0.9780    -0.3530    -0.2210 c6         1 9C4       0.032000
      5 OAG          1.0350    -0.4710    -1.6770 oh         1 9C4      -0.769000
      6 CAH          0.1500    -1.5580     0.3420 c6         1 9C4      -0.066400
      7 CAJ         -1.3380    -1.5010    -0.0940 c6         1 9C4       0.175300
      8 OAC         -2.0720    -2.5970     0.4670 oh         1 9C4      -0.730000
      9 CAK         -1.9980    -0.1620     0.3540 c6         1 9C4       0.109300
     10 OAD         -3.3920    -0.1440    -0.0300 oh         1 9C4      -0.746000
     11 CAL         -1.2150     1.0400    -0.2590 c6         1 9C4       0.096300
     12 OAE         -1.8030     2.3070     0.1240 oh         1 9C4      -0.746000
     13 CAM          0.2750     0.9860     0.2040 c6         1 9C4       0.183300
     14 OAF          0.9510     2.1480    -0.3030 oh         1 9C4      -0.690000
     15 HAG          1.9860    -0.2670    -1.8780 ho         1 9C4       0.545000
     16 HAH1         0.5980    -2.5040     0.0100 hc         1 9C4       0.062200
     17 HAH2         0.1950    -1.5650     1.4390 hc         1 9C4       0.062200
     18 HAM          0.2790     1.0250     1.3050 h1         1 9C4       0.050700
     19 HAJ         -1.3820    -1.5550    -1.1930 h1         1 9C4       0.050700
     20 HAC         -3.0100    -2.2900     0.4210 ho         1 9C4       0.497000
     21 HAK         -1.9170    -0.0960     1.4510 h1         1 9C4       0.047700
     22 HAD         -3.8290     0.5430     0.5270 ho         1 9C4       0.496000
     23 HAL         -1.2360     0.9360    -1.3550 h1         1 9C4       0.065700
     24 HAE         -2.6280     2.4070    -0.4070 ho         1 9C4       0.490000
     25 HAF          0.2420     2.8340    -0.3030 ho         1 9C4       0.484000
@<TRIPOS>BOND
     1     1     2 1   
     2     2     3 1   
     3     2     4 1   
     4     4     5 1   
     5     4     6 1   
     6     4    13 1   
     7     5    15 1   
     8     6     7 1   
     9     6    16 1   
    10     6    17 1   
    11     7     8 1   
    12     7     9 1   
    13     7    19 1   
    14     8    20 1   
    15     9    10 1   
    16     9    11 1   
    17     9    21 1   
    18    10    22 1   
    19    11    12 1   
    20    11    13 1   
    21    11    23 1   
    22    12    24 1   
    23    13    14 1   
    24    13    18 1   
    25    14    25 1   
@<TRIPOS>SUBSTRUCTURE
     1 9C4         1 TEMP              0 ****  ****    0 ROOT
