@<TRIPOS>MOLECULE
9C4
   25    25     1     0     0
SMALL
abcg2


@<TRIPOS>ATOM
      1 OAA          3.2230    -0.4500    -0.6530 o          1 9C4      -0.707000
      2 CAI          2.3760    -0.3480     0.2620 c          1 9C4       0.714000
      3 OAB          2.5860    -0.2860     1.4810 o          1 9C4      -0.707000
      4 CAN          0.9030    -0.3190    -0.2300 c6         1 9C4       0.032000
      5 OAG          0.9120    -0.3980    -1.6340 oh         1 9C4      -0.769000
      6 CAH          0.1270    -1.5000     0.3580 c6         1 9C4      -0.066400
      7 CAJ         -1.3320    -1.4830    -0.0670 c6         1 9C4       0.175300
      8 OAC         -1.9800    -2.5870     0.5280 oh         1 9C4      -0.730000
      9 CAK         -1.9840    -0.1690     0.3470 c6         1 9C4       0.109300
     10 OAD         -3.3230    -0.1960    -0.1060 oh         1 9C4      -0.746000
     11 CAL         -1.2190     1.0210    -0.2260 c6         1 9C4       0.096300
     12 OAE         -1.7780     2.2440     0.2260 oh         1 9C4      -0.746000
     13 CAM          0.2360     0.9820     0.2230 c6         1 9C4       0.183300
     14 OAF          0.9650     2.0670    -0.2940 oh         1 9C4      -0.690000
     15 HAG          1.8710    -0.4320    -1.8230 ho         1 9C4       0.545000
     16 HAH1         0.5910    -2.4360     0.0330 hc         1 9C4       0.062200
     17 HAH2         0.1890    -1.4740     1.4490 hc         1 9C4       0.062200
     18 HAM          0.2550     0.9950     1.3240 h1         1 9C4       0.050700
     19 HAJ         -1.3850    -1.5600    -1.1630 h1         1 9C4       0.050700
     20 HAC         -2.9120    -2.5430     0.2920 ho         1 9C4       0.497000
     21 HAK         -1.9510    -0.1050     1.4460 h1         1 9C4       0.047700
     22 HAD         -3.8170     0.4920     0.3500 ho         1 9C4       0.496000
     23 HAL         -1.2530     0.9740    -1.3220 h1         1 9C4       0.065700
     24 HAE         -2.4380     2.5370    -0.4080 ho         1 9C4       0.490000
     25 HAF          0.4710     2.8680    -0.0880 ho         1 9C4       0.484000
@<TRIPOS>BOND
     1     1     2 1   
     2     2     3 1   
     3     2     4 1   
     4     4     5 1   
     5     4     6 1   
     6     4    13 1   
     7     5    15 1   
     8     6     7 1   
     9     6    16 1   
    10     6    17 1   
    11     7     8 1   
    12     7     9 1   
    13     7    19 1   
    14     8    20 1   
    15     9    10 1   
    16     9    11 1   
    17     9    21 1   
    18    10    22 1   
    19    11    12 1   
    20    11    13 1   
    21    11    23 1   
    22    12    24 1   
    23    13    14 1   
    24    13    18 1   
    25    14    25 1   
@<TRIPOS>SUBSTRUCTURE
     1 9C4         1 TEMP              0 ****  ****    0 ROOT
