@<TRIPOS>MOLECULE
9C5
   39    41     1     0     0
SMALL
abcg2


@<TRIPOS>ATOM
      1 OAE          6.2090    -0.3620    -1.4950 oh         1 9C5      -0.660000
      2 CAD          5.5980    -1.2600    -0.5990 c3         1 9C5       0.132600
      3 CAC          5.3110    -0.5330     0.7020 c3         1 9C5       0.224800
      4 NAB          4.4060     0.5900     0.5660 nh         1 9C5      -0.808400
      5 CAA          4.9750     1.8940     0.3090 c3         1 9C5       0.217100
      6 CAF          3.0650     0.4050     0.4420 ca         1 9C5       0.370000
      7 CAK          2.2020     1.4860     0.1530 ca         1 9C5      -0.211000
      8 CAJ          0.8410     1.3070     0.0480 ca         1 9C5      -0.018500
      9 CAG          2.4590    -0.8600     0.6040 ca         1 9C5      -0.211000
     10 CAH          1.0960    -1.0220     0.4870 ca         1 9C5      -0.018500
     11 CAI          0.2470     0.0510     0.2030 ca         1 9C5      -0.228900
     12 CAL         -1.2020    -0.0860     0.0650 cc         1 9C5       0.585500
     13 NAM         -1.9600     0.9580     0.1220 nd         1 9C5      -0.648100
     14 CAN         -3.3110     0.7920    -0.0210 ca         1 9C5       0.200400
     15 CAS         -4.1400     1.9250     0.0260 ca         1 9C5      -0.111000
     16 CAR         -5.5040     1.7930    -0.1090 ca         1 9C5      -0.074000
     17 CAQ         -6.0890     0.5340    -0.2930 ca         1 9C5      -0.140000
     18 CAP         -5.2920    -0.5880    -0.3410 ca         1 9C5      -0.038000
     19 CAO         -3.9060    -0.4680    -0.2050 ca         1 9C5      -0.211600
     20 CAT         -3.0460    -1.6400    -0.2660 c          1 9C5       0.578600
     21 OAU         -3.4200    -2.7880    -0.4310 o          1 9C5      -0.546000
     22 NAV         -1.7090    -1.3420    -0.1300 ns         1 9C5      -0.428400
     23 H1           6.2620    -0.7860    -2.3560 ho         1 9C5       0.447000
     24 H2           4.6640    -1.6630    -1.0100 h1         1 9C5       0.028200
     25 H3           6.2420    -2.1200    -0.3720 h1         1 9C5       0.028200
     26 H4           4.9260    -1.2510     1.4290 h1         1 9C5       0.059700
     27 H5           6.2450    -0.1620     1.1270 h1         1 9C5       0.059700
     28 H6           4.8190     2.2240    -0.7220 h1         1 9C5       0.041700
     29 H7           4.5540     2.6500     0.9750 h1         1 9C5       0.041700
     30 H8           6.0460     1.8600     0.4880 h1         1 9C5       0.041700
     31 H9           2.5970     2.4800    -0.0000 ha         1 9C5       0.116000
     32 H10          0.2180     2.1630    -0.1770 ha         1 9C5       0.120500
     33 H11          3.0490    -1.7360     0.8270 ha         1 9C5       0.116000
     34 H12          0.7090    -2.0210     0.6480 ha         1 9C5       0.120500
     35 H13         -3.6860     2.8960     0.1700 ha         1 9C5       0.130000
     36 H14         -6.1320     2.6730    -0.0720 ha         1 9C5       0.114000
     37 H15         -7.1620     0.4450    -0.3950 ha         1 9C5       0.118000
     38 H16         -5.7310    -1.5670    -0.4850 ha         1 9C5       0.133000
     39 H17         -1.0740    -2.1230    -0.2180 hn         1 9C5       0.327500
@<TRIPOS>BOND
     1     1     2 1   
     2     1    23 1   
     3     2     3 1   
     4     2    24 1   
     5     2    25 1   
     6     3     4 1   
     7     3    26 1   
     8     3    27 1   
     9     4     5 1   
    10     4     6 1   
    11     5    28 1   
    12     5    29 1   
    13     5    30 1   
    14     6     7 ar  
    15     6     9 ar  
    16     7     8 ar  
    17     7    31 1   
    18     8    11 ar  
    19     8    32 1   
    20     9    10 ar  
    21     9    33 1   
    22    10    11 ar  
    23    10    34 1   
    24    11    12 1   
    25    12    13 2   
    26    12    22 1   
    27    13    14 1   
    28    14    15 ar  
    29    14    19 ar  
    30    15    16 ar  
    31    15    35 1   
    32    16    17 ar  
    33    16    36 1   
    34    17    18 ar  
    35    17    37 1   
    36    18    19 ar  
    37    18    38 1   
    38    19    20 1   
    39    20    21 2   
    40    20    22 1   
    41    22    39 1   
@<TRIPOS>SUBSTRUCTURE
     1 9C5         1 TEMP              0 ****  ****    0 ROOT
