@<TRIPOS>MOLECULE
9C5
   39    41     1     0     0
SMALL
No Charge or Current Charge


@<TRIPOS>ATOM
      1 OAE          5.6850    -0.3840    -2.0050 oh         1 9C5      -0.660000
      2 CAD          5.3140    -1.2580    -0.9210 c3         1 9C5       0.132600
      3 CAC          5.4380    -0.5530     0.4640 c3         1 9C5       0.224800
      4 NAB          4.5040     0.5880     0.6960 nh         1 9C5      -0.808400
      5 CAA          5.1120     1.9280     0.8740 c3         1 9C5       0.217100
      6 CAF          3.1050     0.4340     0.5370 ca         1 9C5       0.370000
      7 CAK          2.3290     1.4430    -0.0620 ca         1 9C5      -0.211000
      8 CAJ          0.9420     1.2870    -0.2190 ca         1 9C5      -0.018500
      9 CAG          2.4600    -0.7310     0.9860 ca         1 9C5      -0.211000
     10 CAH          1.0730    -0.8950     0.8330 ca         1 9C5      -0.018500
     11 CAI          0.2960     0.1050     0.2050 ca         1 9C5      -0.228900
     12 CAL         -1.1630    -0.0320     0.0720 cc         1 9C5       0.585500
     13 NAM         -1.9380     1.0540     0.0560 nd         1 9C5      -0.648100
     14 CAN         -3.3120     0.7960    -0.0860 ca         1 9C5       0.200400
     15 CAS         -4.1840     1.9010    -0.0970 ca         1 9C5      -0.111000
     16 CAR         -5.5710     1.7270    -0.2330 ca         1 9C5      -0.074000
     17 CAQ         -6.1030     0.4350    -0.3610 ca         1 9C5      -0.140000
     18 CAP         -5.2480    -0.6780    -0.3530 ca         1 9C5      -0.038000
     19 CAO         -3.8550    -0.4960    -0.2150 ca         1 9C5      -0.211600
     20 CAT         -2.9280    -1.6510    -0.2100 c          1 9C5       0.578600
     21 OAU         -3.2810    -2.8140    -0.3280 o          1 9C5      -0.546000
     22 NAV         -1.6310    -1.3100    -0.0680 ns         1 9C5      -0.428400
     23 H1           5.5170    -0.8730    -2.8400 ho         1 9C5       0.447000
     24 H2           4.2830    -1.6140    -1.0530 h1         1 9C5       0.028200
     25 H3           5.9650    -2.1430    -0.9170 h1         1 9C5       0.028200
     26 H4           5.2890    -1.3090     1.2470 h1         1 9C5       0.059700
     27 H5           6.4780    -0.2160     0.5700 h1         1 9C5       0.059700
     28 H6           5.3410     2.3800    -0.1000 h1         1 9C5       0.041700
     29 H7           4.4310     2.5930     1.4210 h1         1 9C5       0.041700
     30 H8           6.0420     1.8590     1.4550 h1         1 9C5       0.041700
     31 H9           2.7980     2.3530    -0.4210 ha         1 9C5       0.116000
     32 H10          0.3740     2.0890    -0.6890 ha         1 9C5       0.120500
     33 H11          3.0290    -1.5130     1.4770 ha         1 9C5       0.116000
     34 H12          0.6120    -1.8010     1.2230 ha         1 9C5       0.120500
     35 H13         -3.7780     2.9050     0.0020 ha         1 9C5       0.130000
     36 H14         -6.2310     2.5920    -0.2390 ha         1 9C5       0.114000
     37 H15         -7.1770     0.2950    -0.4660 ha         1 9C5       0.118000
     38 H16         -5.6670    -1.6780    -0.4540 ha         1 9C5       0.133000
     39 H17         -0.9700    -2.0700    -0.0870 hn         1 9C5       0.327500
@<TRIPOS>BOND
     1     1     2 1   
     2     1    23 1   
     3     2     3 1   
     4     2    24 1   
     5     2    25 1   
     6     3     4 1   
     7     3    26 1   
     8     3    27 1   
     9     4     5 1   
    10     4     6 1   
    11     5    28 1   
    12     5    29 1   
    13     5    30 1   
    14     6     7 ar  
    15     6     9 ar  
    16     7     8 ar  
    17     7    31 1   
    18     8    11 ar  
    19     8    32 1   
    20     9    10 ar  
    21     9    33 1   
    22    10    11 ar  
    23    10    34 1   
    24    11    12 1   
    25    12    13 2   
    26    12    22 1   
    27    13    14 1   
    28    14    15 ar  
    29    14    19 ar  
    30    15    16 ar  
    31    15    35 1   
    32    16    17 ar  
    33    16    36 1   
    34    17    18 ar  
    35    17    37 1   
    36    18    19 ar  
    37    18    38 1   
    38    19    20 1   
    39    20    21 2   
    40    20    22 1   
    41    22    39 1   
@<TRIPOS>SUBSTRUCTURE
     1 9C5         1 TEMP              0 ****  ****    0 ROOT
