@<TRIPOS>MOLECULE
9C6
   41    44     1     0     0
SMALL
No Charge or Current Charge


@<TRIPOS>ATOM
      1 N1           4.0400     0.6760     0.0560 na         1 9C6      -0.061000
      2 C4           4.5450     1.9870    -0.0430 cc         1 9C6      -0.061000
      3 C5           2.6460     0.4680    -0.0390 cc         1 9C6       0.213000
      4 C6           4.4870    -1.6460    -0.6040 c6         1 9C6      -0.400400
      5 C7           4.9680    -0.4550     0.2400 c6         1 9C6       0.066600
      6 C8           0.2500     1.5090    -0.2680 ca         1 9C6      -0.027000
      7 C10         -1.8650     0.5750     0.5640 ca         1 9C6      -0.122500
      8 C13         -0.5030     2.3590    -1.1160 ca         1 9C6      -0.071500
      9 C15         -4.2870    -0.9600    -0.8100 ca         1 9C6      -0.159500
     10 C17         -6.2630    -2.0880     0.0570 ca         1 9C6      -0.143000
     11 S1           2.8460    -2.1760    -0.0900 sy         1 9C6       1.267600
     12 O1           2.9780    -2.7500     1.2540 o          1 9C6      -0.533000
     13 C3           3.6540     3.0290    -0.2210 cd         1 9C6      -0.188000
     14 C2           2.2470     2.8460    -0.3230 cd         1 9C6      -0.029000
     15 N2           2.1250    -0.7240     0.0130 nf         1 9C6      -0.547600
     16 C1           1.7350     1.5720    -0.2620 cc         1 9C6      -0.070000
     17 C12         -1.9080     2.3100    -1.1300 ca         1 9C6      -0.122500
     18 C11         -2.5910     1.4120    -0.3000 ca         1 9C6       0.110100
     19 C9          -0.4600     0.6220     0.5760 ca         1 9C6      -0.071500
     20 O3          -3.9680     1.3950    -0.3220 os         1 9C6      -0.261200
     21 C14         -4.7040     0.2380    -0.1970 ca         1 9C6       0.134100
     22 C19         -5.9080     0.2740     0.5260 ca         1 9C6      -0.159500
     23 C18         -6.6860    -0.8900     0.6580 ca         1 9C6      -0.079000
     24 C16         -5.0650    -2.1240    -0.6790 ca         1 9C6      -0.079000
     25 H1           5.6190     2.1130     0.0360 h4         1 9C6       0.144000
     26 H2           4.3940    -1.3770    -1.6630 h1         1 9C6       0.119200
     27 H3           5.1340    -2.5240    -0.4950 h1         1 9C6       0.119200
     28 H4           5.9800    -0.1610    -0.0740 h1         1 9C6       0.079700
     29 H5           5.0090    -0.7200     1.3070 h1         1 9C6       0.079700
     30 H6          -2.3850    -0.1030     1.2360 ha         1 9C6       0.131500
     31 H7          -0.0040     3.0420    -1.7980 ha         1 9C6       0.121500
     32 H8          -3.3680    -0.9900    -1.3900 ha         1 9C6       0.128500
     33 H9          -6.8650    -2.9890     0.1590 ha         1 9C6       0.115000
     34 H10          4.0480     4.0400    -0.2750 ha         1 9C6       0.144000
     35 H11          1.6100     3.7190    -0.4170 ha         1 9C6       0.136000
     36 H13         -2.4670     2.9640    -1.7940 ha         1 9C6       0.131500
     37 H14          0.0690    -0.0140     1.2810 ha         1 9C6       0.121500
     38 H15         -6.2340     1.2020     0.9870 ha         1 9C6       0.128500
     39 H16         -7.6160    -0.8620     1.2230 ha         1 9C6       0.114000
     40 H17         -4.7430    -3.0510    -1.1490 ha         1 9C6       0.114000
     41 O2           2.2700    -2.9370    -1.2060 o          1 9C6      -0.533000
@<TRIPOS>BOND
     1     1     2 1   
     2     1     3 1   
     3     1     5 1   
     4     2    13 2   
     5     2    25 1   
     6     3    15 2   
     7     3    16 1   
     8     4     5 1   
     9     4    11 1   
    10     4    26 1   
    11     4    27 1   
    12     5    28 1   
    13     5    29 1   
    14     6     8 ar  
    15     6    16 1   
    16     6    19 ar  
    17     7    18 ar  
    18     7    19 ar  
    19     7    30 1   
    20     8    17 ar  
    21     8    31 1   
    22     9    21 ar  
    23     9    24 ar  
    24     9    32 1   
    25    10    23 ar  
    26    10    24 ar  
    27    10    33 1   
    28    11    12 2   
    29    11    15 1   
    30    11    41 2   
    31    13    14 1   
    32    13    34 1   
    33    14    16 2   
    34    14    35 1   
    35    17    18 ar  
    36    17    36 1   
    37    18    20 1   
    38    19    37 1   
    39    20    21 1   
    40    21    22 ar  
    41    22    23 ar  
    42    22    38 1   
    43    23    39 1   
    44    24    40 1   
@<TRIPOS>SUBSTRUCTURE
     1 9C6         1 TEMP              0 ****  ****    0 ROOT
