@<TRIPOS>MOLECULE
9C6
   41    44     1     0     0
SMALL
bcc


@<TRIPOS>ATOM
      1 N1           3.9170     0.7060    -0.2600 na         1 9C6      -0.133100
      2 C4           4.3920     1.9460    -0.5550 cc         1 9C6      -0.028300
      3 C5           2.5800     0.4530    -0.0760 cc         1 9C6       0.263700
      4 C6           4.4100    -1.6830    -0.6350 c6         1 9C6      -0.289600
      5 C7           4.9090    -0.3640    -0.0930 c6         1 9C6       0.037300
      6 C8           0.2420     1.3960     0.0400 ca         1 9C6      -0.027000
      7 C10         -1.6230     0.7000     1.4110 ca         1 9C6      -0.140500
      8 C13         -0.6610     1.9000    -0.8930 ca         1 9C6      -0.089500
      9 C15         -4.0640    -0.9050    -0.5150 ca         1 9C6      -0.177500
     10 C17         -6.2900    -1.7880    -0.8450 ca         1 9C6      -0.161000
     11 S1           2.9320    -2.0880     0.2710 sy         1 9C6       1.298400
     12 O1           3.3080    -2.3340     1.6620 o          1 9C6      -0.603800
     13 C3           3.5710     3.0140    -0.6750 cd         1 9C6      -0.206000
     14 C2           2.1940     2.8140    -0.4690 cd         1 9C6      -0.047000
     15 N2           2.0660    -0.7370     0.1510 nf         1 9C6      -0.547600
     16 C1           1.6920     1.5780    -0.1720 cc         1 9C6      -0.070000
     17 C12         -2.0300     1.8120    -0.6860 ca         1 9C6      -0.140500
     18 C11         -2.5030     1.2160     0.4710 ca         1 9C6       0.110100
     19 C9          -0.2580     0.7900     1.1930 ca         1 9C6      -0.089500
     20 O3          -3.8510     1.1740     0.7200 os         1 9C6      -0.261200
     21 C14         -4.6020     0.1750     0.1750 ca         1 9C6       0.134100
     22 C19         -5.9780     0.2790     0.3580 ca         1 9C6      -0.177500
     23 C18         -6.8140    -0.7020    -0.1500 ca         1 9C6      -0.097000
     24 C16         -4.9180    -1.8790    -1.0200 ca         1 9C6      -0.097000
     25 H1           5.4620     2.0190    -0.6810 h4         1 9C6       0.162000
     26 H2           4.1630    -1.6250    -1.6960 h1         1 9C6       0.119200
     27 H3           5.1540    -2.4650    -0.4800 h1         1 9C6       0.119200
     28 H4           5.8100    -0.0720    -0.6250 h1         1 9C6       0.079700
     29 H5           5.1610    -0.4470     0.9650 h1         1 9C6       0.079700
     30 H6          -2.0020     0.2400     2.3150 ha         1 9C6       0.149500
     31 H7          -0.2970     2.3620    -1.8020 ha         1 9C6       0.139500
     32 H8          -2.9970    -1.0040    -0.6620 ha         1 9C6       0.146500
     33 H9          -6.9450    -2.5520    -1.2400 ha         1 9C6       0.133000
     34 H10          3.9760     3.9860    -0.9100 ha         1 9C6       0.162000
     35 H11          1.5200     3.6590    -0.5290 ha         1 9C6       0.154000
     36 H13         -2.7190     2.2100    -1.4200 ha         1 9C6       0.149500
     37 H14          0.4200     0.3930     1.9350 ha         1 9C6       0.139500
     38 H15         -6.3870     1.1250     0.8960 ha         1 9C6       0.146500
     39 H16         -7.8820    -0.6160    -0.0030 ha         1 9C6       0.132000
     40 H17         -4.4940    -2.7200    -1.5550 ha         1 9C6       0.132000
     41 O2           2.2050    -3.1550    -0.4060 o          1 9C6      -0.603800
@<TRIPOS>BOND
     1     1     2 1   
     2     1     3 1   
     3     1     5 1   
     4     2    13 2   
     5     2    25 1   
     6     3    15 2   
     7     3    16 1   
     8     4     5 1   
     9     4    11 1   
    10     4    26 1   
    11     4    27 1   
    12     5    28 1   
    13     5    29 1   
    14     6     8 ar  
    15     6    16 1   
    16     6    19 ar  
    17     7    18 ar  
    18     7    19 ar  
    19     7    30 1   
    20     8    17 ar  
    21     8    31 1   
    22     9    21 ar  
    23     9    24 ar  
    24     9    32 1   
    25    10    23 ar  
    26    10    24 ar  
    27    10    33 1   
    28    11    12 2   
    29    11    15 1   
    30    11    41 2   
    31    13    14 1   
    32    13    34 1   
    33    14    16 2   
    34    14    35 1   
    35    17    18 ar  
    36    17    36 1   
    37    18    20 1   
    38    19    37 1   
    39    20    21 1   
    40    21    22 ar  
    41    22    23 ar  
    42    22    38 1   
    43    23    39 1   
    44    24    40 1   
@<TRIPOS>SUBSTRUCTURE
     1 9C6         1 TEMP              0 ****  ****    0 ROOT
