@<TRIPOS>MOLECULE
9C8
   41    43     1     0     0
SMALL
bcc


@<TRIPOS>ATOM
      1 CAA          5.6000     1.5520     1.0210 c3         1 9C8      -0.120600
      2 CAB          5.3770     1.0160    -0.3880 c3         1 9C8       0.225800
      3 NAC          4.5350    -0.1660    -0.4590 nh         1 9C8      -0.682000
      4 CAD          5.1940    -1.4600    -0.4810 c3         1 9C8       0.225800
      5 CAE          5.3650    -2.1070     0.8890 c3         1 9C8      -0.120600
      6 CAF          3.1840    -0.0710    -0.3380 ca         1 9C8       0.236600
      7 CAK          2.3540    -1.2160    -0.3140 ca         1 9C8      -0.230000
      8 CAJ          0.9860    -1.1070    -0.2350 ca         1 9C8      -0.036000
      9 CAG          2.5300     1.1780    -0.2530 ca         1 9C8      -0.230000
     10 CAH          1.1570     1.2680    -0.1740 ca         1 9C8      -0.036000
     11 CAI          0.3410     0.1330    -0.1660 ca         1 9C8      -0.228900
     12 CAL         -1.1190     0.1770    -0.0820 cc         1 9C8       0.588500
     13 NAM         -1.7950    -0.9230    -0.0480 nd         1 9C8      -0.653100
     14 CAN         -3.1590    -0.8530     0.0290 ca         1 9C8       0.202400
     15 CAO         -3.8960    -2.0480     0.0630 ca         1 9C8      -0.130000
     16 CAP         -5.2700    -2.0140     0.1420 ca         1 9C8      -0.092000
     17 CAQ         -5.9560    -0.7930     0.1880 ca         1 9C8      -0.159000
     18 CAR         -5.2500     0.3890     0.1550 ca         1 9C8      -0.055000
     19 CAS         -3.8550     0.3670     0.0750 ca         1 9C8      -0.212600
     20 CAT         -3.0890     1.6030     0.0360 c          1 9C8       0.721100
     21 OAU         -3.5560     2.7290     0.0660 o          1 9C8      -0.621500
     22 NAV         -1.7300     1.4010    -0.0430 ns         1 9C8      -0.495400
     23 H1           4.6640     1.8350     1.5010 hc         1 9C8       0.043700
     24 H2           6.0940     0.8150     1.6540 hc         1 9C8       0.043700
     25 H3           6.2340     2.4380     0.9840 hc         1 9C8       0.043700
     26 H4           4.9630     1.8000    -1.0250 h1         1 9C8       0.049950
     27 H5           6.3370     0.7540    -0.8330 h1         1 9C8       0.049950
     28 H6           4.6540    -2.1350    -1.1490 h1         1 9C8       0.049950
     29 H7           6.1720    -1.3170    -0.9390 h1         1 9C8       0.049950
     30 H8           5.9770    -1.4890     1.5450 hc         1 9C8       0.043700
     31 H9           4.4060    -2.2740     1.3800 hc         1 9C8       0.043700
     32 H10          5.8570    -3.0750     0.7840 hc         1 9C8       0.043700
     33 H11          2.7770    -2.2090    -0.3540 ha         1 9C8       0.135000
     34 H12          0.3910    -2.0100    -0.2220 ha         1 9C8       0.138000
     35 H13          3.0940     2.0990    -0.2470 ha         1 9C8       0.135000
     36 H14          0.7480     2.2690    -0.1110 ha         1 9C8       0.138000
     37 H15         -3.3630    -2.9890     0.0260 ha         1 9C8       0.148000
     38 H16         -5.8270    -2.9410     0.1690 ha         1 9C8       0.132000
     39 H17         -7.0360    -0.7820     0.2490 ha         1 9C8       0.136000
     40 H18         -5.7690     1.3380     0.1910 ha         1 9C8       0.151000
     41 H19         -1.1680     2.2400    -0.0820 hn         1 9C8       0.327500
@<TRIPOS>BOND
     1     1     2 1   
     2     1    23 1   
     3     1    24 1   
     4     1    25 1   
     5     2     3 1   
     6     2    26 1   
     7     2    27 1   
     8     3     4 1   
     9     3     6 1   
    10     4     5 1   
    11     4    28 1   
    12     4    29 1   
    13     5    30 1   
    14     5    31 1   
    15     5    32 1   
    16     6     7 ar  
    17     6     9 ar  
    18     7     8 ar  
    19     7    33 1   
    20     8    11 ar  
    21     8    34 1   
    22     9    10 ar  
    23     9    35 1   
    24    10    11 ar  
    25    10    36 1   
    26    11    12 1   
    27    12    13 2   
    28    12    22 1   
    29    13    14 1   
    30    14    15 ar  
    31    14    19 ar  
    32    15    16 ar  
    33    15    37 1   
    34    16    17 ar  
    35    16    38 1   
    36    17    18 ar  
    37    17    39 1   
    38    18    19 ar  
    39    18    40 1   
    40    19    20 1   
    41    20    21 2   
    42    20    22 1   
    43    22    41 1   
@<TRIPOS>SUBSTRUCTURE
     1 9C8         1 TEMP              0 ****  ****    0 ROOT
