@<TRIPOS>MOLECULE
9C8
   41    43     1     0     0
SMALL
No Charge or Current Charge


@<TRIPOS>ATOM
      1 CAA          6.1100     1.6370     0.6340 c3         1 9C8      -0.120600
      2 CAB          5.3740     1.0960    -0.6060 c3         1 9C8       0.225800
      3 NAC          4.5720    -0.1190    -0.3340 nh         1 9C8      -0.820400
      4 CAD          5.3120    -1.3920    -0.1560 c3         1 9C8       0.225800
      5 CAE          5.0640    -2.0560     1.2110 c3         1 9C8      -0.120600
      6 CAF          3.1560    -0.0680    -0.2830 ca         1 9C8       0.375000
      7 CAK          2.3750    -1.1230    -0.7880 ca         1 9C8      -0.212000
      8 CAJ          0.9730    -1.0740    -0.7340 ca         1 9C8      -0.018000
      9 CAG          2.4990     1.0370     0.2860 ca         1 9C8      -0.212000
     10 CAH          1.0970     1.0960     0.3440 ca         1 9C8      -0.018000
     11 CAI          0.3110     0.0480    -0.1880 ca         1 9C8      -0.228900
     12 CAL         -1.1570     0.0740    -0.1000 cc         1 9C8       0.588500
     13 NAM         -1.8440    -1.0690    -0.0300 nd         1 9C8      -0.653100
     14 CAN         -3.2380    -0.9160     0.0400 ca         1 9C8       0.202400
     15 CAO         -4.0170    -2.0850     0.1290 ca         1 9C8      -0.112000
     16 CAP         -5.4190    -2.0160     0.2040 ca         1 9C8      -0.074000
     17 CAQ         -6.0580    -0.7670     0.1920 ca         1 9C8      -0.141000
     18 CAR         -5.2960     0.4080     0.1030 ca         1 9C8      -0.037000
     19 CAS         -3.8880     0.3320     0.0270 ca         1 9C8      -0.212600
     20 CAT         -3.0600     1.5550    -0.0740 c          1 9C8       0.578600
     21 OAU         -3.5120     2.6890    -0.1070 o          1 9C8      -0.546000
     22 NAV         -1.7340     1.3140    -0.1340 ns         1 9C8      -0.428400
     23 H1           5.4000     1.8800     1.4330 hc         1 9C8       0.043700
     24 H2           6.8230     0.8980     1.0180 hc         1 9C8       0.043700
     25 H3           6.6640     2.5470     0.3780 hc         1 9C8       0.043700
     26 H4           4.7300     1.8900    -1.0080 h1         1 9C8       0.049950
     27 H5           6.1150     0.8790    -1.3880 h1         1 9C8       0.049950
     28 H6           5.0490    -2.0990    -0.9540 h1         1 9C8       0.049950
     29 H7           6.3920    -1.2140    -0.2500 h1         1 9C8       0.049950
     30 H8           5.3480    -1.3790     2.0240 hc         1 9C8       0.043700
     31 H9           4.0070    -2.3220     1.3320 hc         1 9C8       0.043700
     32 H10          5.6600    -2.9720     1.3000 hc         1 9C8       0.043700
     33 H11          2.8500    -1.9900    -1.2350 ha         1 9C8       0.117000
     34 H12          0.4030    -1.9100    -1.1360 ha         1 9C8       0.120000
     35 H13          3.0750     1.8530     0.7080 ha         1 9C8       0.117000
     36 H14          0.6340     1.9570     0.8210 ha         1 9C8       0.120000
     37 H15         -3.5280    -3.0550     0.1390 ha         1 9C8       0.130000
     38 H16         -6.0060    -2.9290     0.2730 ha         1 9C8       0.114000
     39 H17         -7.1430    -0.7100     0.2500 ha         1 9C8       0.118000
     40 H18         -5.7990     1.3740     0.0920 ha         1 9C8       0.133000
     41 H19         -1.1420     2.1220    -0.2310 hn         1 9C8       0.327500
@<TRIPOS>BOND
     1     1     2 1   
     2     1    23 1   
     3     1    24 1   
     4     1    25 1   
     5     2     3 1   
     6     2    26 1   
     7     2    27 1   
     8     3     4 1   
     9     3     6 1   
    10     4     5 1   
    11     4    28 1   
    12     4    29 1   
    13     5    30 1   
    14     5    31 1   
    15     5    32 1   
    16     6     7 ar  
    17     6     9 ar  
    18     7     8 ar  
    19     7    33 1   
    20     8    11 ar  
    21     8    34 1   
    22     9    10 ar  
    23     9    35 1   
    24    10    11 ar  
    25    10    36 1   
    26    11    12 1   
    27    12    13 2   
    28    12    22 1   
    29    13    14 1   
    30    14    15 ar  
    31    14    19 ar  
    32    15    16 ar  
    33    15    37 1   
    34    16    17 ar  
    35    16    38 1   
    36    17    18 ar  
    37    17    39 1   
    38    18    19 ar  
    39    18    40 1   
    40    19    20 1   
    41    20    21 2   
    42    20    22 1   
    43    22    41 1   
@<TRIPOS>SUBSTRUCTURE
     1 9C8         1 TEMP              0 ****  ****    0 ROOT
