@<TRIPOS>MOLECULE
9C9
   66    69     1     0     0
SMALL
abcg2


@<TRIPOS>ATOM
      1 C1           2.0290    -0.3370    -1.3060 c          1 9C9       0.563000
      2 O2           1.1580    -0.9830    -1.8650 o          1 9C9      -0.543000
      3 C6           1.9420    -2.3270     1.7380 ca         1 9C9       0.144500
      4 C7           0.9250    -3.1940     2.1090 ca         1 9C9      -0.099000
      5 C8           0.7070    -4.3430     1.3730 ca         1 9C9      -0.091000
      6 C9           1.5230    -4.6360     0.2930 ca         1 9C9      -0.099000
      7 C10          2.5240    -3.7460    -0.0560 ca         1 9C9       0.144500
      8 CL2          3.5640    -4.2100    -1.3680 cl         1 9C9      -0.201500
      9 C5           2.7520    -2.5430     0.6200 ca         1 9C9      -0.071300
     10 C4           3.7910    -1.5590     0.1530 c3         1 9C9      -0.011100
     11 C3           3.4400    -0.8900    -1.1920 c3         1 9C9      -0.147700
     12 C11          4.4990     0.0950    -1.6740 c3         1 9C9       0.227800
     13 N12          4.8430     1.1790    -0.7790 nu         1 9C9      -0.903400
     14 C13          3.9610     2.0330    -0.2070 c2         1 9C9       0.608200
     15 N14          4.2530     3.2190     0.1970 n2         1 9C9      -0.596400
     16 N62          5.6050     3.5750    -0.0570 nh         1 9C9      -0.426700
     17 C63          6.3900     3.3420     1.1450 c3         1 9C9       0.143600
     18 C68          5.6400     4.9720    -0.4350 c3         1 9C9       0.143600
     19 C15          2.5880     1.5560     0.1700 c3         1 9C9       0.048700
     20 N16          1.7920     0.9280    -0.8730 n          1 9C9      -0.377800
     21 C17          0.4470     1.4090    -1.0660 c3         1 9C9       0.010000
     22 C19         -0.5390     0.6860    -0.1540 c          1 9C9       0.591100
     23 O30         -0.1780     0.1510     0.8730 o          1 9C9      -0.574100
     24 N20         -1.8230     0.7430    -0.5880 ns         1 9C9      -0.143000
     25 C21         -2.9750     0.2830     0.0590 ca         1 9C9      -0.016000
     26 C25         -4.1930     0.8070    -0.3710 ca         1 9C9      -0.163000
     27 C26         -5.4010     0.4020     0.1910 ca         1 9C9       0.045000
     28 C27         -5.3730    -0.5520     1.2120 ca         1 9C9      -0.137000
     29 C28         -4.1650    -1.0810     1.6300 ca         1 9C9      -0.085000
     30 C29         -2.9600    -0.6810     1.0680 ca         1 9C9      -0.130000
     31 C60         -6.6610     0.9720    -0.2780 cc         1 9C9      -0.160000
     32 C64         -6.8670     2.1300    -1.0540 cc         1 9C9       0.254900
     33 N63         -8.1490     2.3400    -1.2850 nd         1 9C9      -0.526800
     34 N71         -8.7840     1.3420    -0.6780 na         1 9C9       0.134800
     35 C67        -10.2230     1.2490    -0.7500 c3         1 9C9       0.072900
     36 C61         -7.9430     0.4980    -0.0630 cd         1 9C9      -0.153000
     37 H1           0.3160    -2.9770     2.9750 ha         1 9C9       0.133500
     38 H2          -0.0830    -5.0250     1.6550 ha         1 9C9       0.122000
     39 H3           1.3880    -5.5510    -0.2670 ha         1 9C9       0.133500
     40 H4           3.9720    -0.8120     0.9230 hc         1 9C9       0.068700
     41 H5           4.7460    -2.0710     0.0130 hc         1 9C9       0.068700
     42 H6           3.4520    -1.6730    -1.9500 hc         1 9C9       0.090700
     43 H7           5.4180    -0.4680    -1.8370 h1         1 9C9       0.044700
     44 H8           4.1890     0.4730    -2.6550 h1         1 9C9       0.044700
     45 H9           5.7070     1.6510    -1.0190 hn         1 9C9       0.494000
     46 H10          6.3850     2.2820     1.4010 h1         1 9C9       0.037033
     47 H11          7.4240     3.6360     0.9630 h1         1 9C9       0.037033
     48 H12          6.0190     3.9060     2.0120 h1         1 9C9       0.037033
     49 H13          5.2320     5.6360     0.3390 h1         1 9C9       0.037033
     50 H14          6.6720     5.2660    -0.6290 h1         1 9C9       0.037033
     51 H15          5.0700     5.1250    -1.3510 h1         1 9C9       0.037033
     52 H16          2.6690     0.8980     1.0360 h1         1 9C9       0.082700
     53 H17          2.0500     2.4340     0.5170 h1         1 9C9       0.082700
     54 H18          0.4140     2.4760    -0.8350 h1         1 9C9       0.076700
     55 H19          0.1550     1.3100    -2.1130 h1         1 9C9       0.076700
     56 H20         -1.9870     1.2650    -1.4360 hn         1 9C9       0.150000
     57 H21         -4.1930     1.5440    -1.1670 ha         1 9C9       0.108000
     58 H22         -6.2920    -0.8750     1.6840 ha         1 9C9       0.109000
     59 H23         -4.1530    -1.8260     2.4160 ha         1 9C9       0.111000
     60 H24         -2.0370    -1.1190     1.4100 ha         1 9C9       0.145000
     61 H25         -6.1290     2.8190    -1.4370 h4         1 9C9       0.036100
     62 H26        -10.5430     1.1040    -1.7800 h1         1 9C9       0.057033
     63 H27        -10.5510     0.4020    -0.1560 h1         1 9C9       0.057033
     64 H28        -10.6780     2.1560    -0.3580 h1         1 9C9       0.057033
     65 H29         -8.3030    -0.3710     0.4640 h4         1 9C9       0.154000
     66 CL1          2.2210    -0.9760     2.7890 cl         1 9C9      -0.201500
@<TRIPOS>BOND
     1     1     2 2   
     2     1    11 1   
     3     1    20 1   
     4     3     4 ar  
     5     3     9 ar  
     6     3    66 1   
     7     4     5 ar  
     8     4    37 1   
     9     5     6 ar  
    10     5    38 1   
    11     6     7 ar  
    12     6    39 1   
    13     7     8 1   
    14     7     9 ar  
    15     9    10 1   
    16    10    11 1   
    17    10    40 1   
    18    10    41 1   
    19    11    12 1   
    20    11    42 1   
    21    12    13 1   
    22    12    43 1   
    23    12    44 1   
    24    13    14 1   
    25    13    45 1   
    26    14    15 2   
    27    14    19 1   
    28    15    16 1   
    29    16    17 1   
    30    16    18 1   
    31    17    46 1   
    32    17    47 1   
    33    17    48 1   
    34    18    49 1   
    35    18    50 1   
    36    18    51 1   
    37    19    20 1   
    38    19    52 1   
    39    19    53 1   
    40    20    21 1   
    41    21    22 1   
    42    21    54 1   
    43    21    55 1   
    44    22    23 2   
    45    22    24 1   
    46    24    25 1   
    47    24    56 1   
    48    25    26 ar  
    49    25    30 ar  
    50    26    27 ar  
    51    26    57 1   
    52    27    28 ar  
    53    27    31 1   
    54    28    29 ar  
    55    28    58 1   
    56    29    30 ar  
    57    29    59 1   
    58    30    60 1   
    59    31    32 1   
    60    31    36 2   
    61    32    33 2   
    62    32    61 1   
    63    33    34 1   
    64    34    35 1   
    65    34    36 1   
    66    35    62 1   
    67    35    63 1   
    68    35    64 1   
    69    36    65 1   
@<TRIPOS>SUBSTRUCTURE
     1 9C9         1 TEMP              0 ****  ****    0 ROOT
