@<TRIPOS>MOLECULE
9C9
   66    69     1     0     0
SMALL
No Charge or Current Charge


@<TRIPOS>ATOM
      1 C1           2.0720    -0.7290    -0.9980 c          1 9C9       0.563000
      2 O2           1.2960    -1.5010    -1.5460 o          1 9C9      -0.543000
      3 C6           2.6430    -3.3000     1.4890 ca         1 9C9       0.144500
      4 C7           2.1620    -4.6000     1.7170 ca         1 9C9      -0.099000
      5 C8           2.6770    -5.6850     0.9930 ca         1 9C9      -0.091000
      6 C9           3.6820    -5.4670     0.0400 ca         1 9C9      -0.099000
      7 C10          4.1690    -4.1700    -0.1950 ca         1 9C9       0.144500
      8 Cl2          5.4470    -3.9840    -1.4010 cl         1 9C9      -0.201500
      9 C5           3.6510    -3.0610     0.5210 ca         1 9C9      -0.071300
     10 C4           4.1810    -1.6430     0.2510 c3         1 9C9      -0.011100
     11 C3           3.5840    -1.0070    -1.0410 c3         1 9C9      -0.147700
     12 C11          4.3560     0.2200    -1.5600 c3         1 9C9       0.227800
     13 N12          4.5990     1.2500    -0.5450 nu         1 9C9      -0.903400
     14 C13          3.6380     1.9670     0.1520 c2         1 9C9       0.608200
     15 N14          3.8760     3.1960     0.5110 n2         1 9C9      -0.596400
     16 N62          5.0850     3.7390     0.1180 nh         1 9C9      -0.426700
     17 C63          6.1180     3.9620     1.1540 c3         1 9C9       0.143600
     18 C68          5.0670     4.7520    -0.9620 c3         1 9C9       0.143600
     19 C15          2.3460     1.2550     0.5530 c3         1 9C9       0.048700
     20 N16          1.6050     0.5110    -0.5050 n          1 9C9      -0.377800
     21 C17          0.2030     0.9490    -0.7860 c3         1 9C9       0.010000
     22 C19         -0.8890     0.4070     0.1630 c          1 9C9       0.591100
     23 O30         -0.6280    -0.2480     1.1660 o          1 9C9      -0.574100
     24 N20         -2.1770     0.7590    -0.2250 ns         1 9C9      -0.143000
     25 C21         -3.4560     0.4790     0.3310 ca         1 9C9      -0.016000
     26 C25         -4.5740     1.0830    -0.2770 ca         1 9C9      -0.163000
     27 C26         -5.8820     0.8630     0.2020 ca         1 9C9       0.045000
     28 C27         -6.0590     0.0150     1.3150 ca         1 9C9      -0.137000
     29 C28         -4.9540    -0.5970     1.9280 ca         1 9C9      -0.085000
     30 C29         -3.6570    -0.3690     1.4410 ca         1 9C9      -0.130000
     31 C60         -7.0200     1.5150    -0.4610 cc         1 9C9      -0.160000
     32 C64         -7.0490     2.3820    -1.5670 cc         1 9C9       0.254900
     33 N63         -8.2600     2.7830    -1.8970 nd         1 9C9      -0.526800
     34 N71         -9.0550     2.1420    -0.9550 na         1 9C9       0.134800
     35 C67        -10.5140     2.3160    -0.9580 c3         1 9C9       0.072900
     36 C61         -8.3160     1.3570    -0.0620 cd         1 9C9      -0.153000
     37 H1           1.3870    -4.7670     2.4620 ha         1 9C9       0.133500
     38 H2           2.3030    -6.6910     1.1730 ha         1 9C9       0.122000
     39 H3           4.0890    -6.3060    -0.5190 ha         1 9C9       0.133500
     40 H4           4.0350    -0.9840     1.1100 hc         1 9C9       0.068700
     41 H5           5.2720    -1.6830     0.1430 hc         1 9C9       0.068700
     42 H6           3.6970    -1.7670    -1.8220 hc         1 9C9       0.090700
     43 H7           5.3270    -0.1250    -1.9420 h1         1 9C9       0.044700
     44 H8           3.8160     0.6560    -2.4120 h1         1 9C9       0.044700
     45 H9           5.4060     1.8510    -0.6980 hn         1 9C9       0.494000
     46 H10          6.1740     3.1020     1.8340 h1         1 9C9       0.037033
     47 H11          7.1040     4.0980     0.6910 h1         1 9C9       0.037033
     48 H12          5.8820     4.8580     1.7430 h1         1 9C9       0.037033
     49 H13          4.7260     5.7200    -0.5730 h1         1 9C9       0.037033
     50 H14          6.0720     4.8800    -1.3850 h1         1 9C9       0.037033
     51 H15          4.3910     4.4420    -1.7700 h1         1 9C9       0.037033
     52 H16          2.5690     0.5730     1.3780 h1         1 9C9       0.082700
     53 H17          1.6750     2.0110     0.9780 h1         1 9C9       0.082700
     54 H18          0.1520     2.0440    -0.7520 h1         1 9C9       0.076700
     55 H19         -0.0710     0.6530    -1.8070 h1         1 9C9       0.076700
     56 H20         -2.2160     1.3190    -1.0670 hn         1 9C9       0.150000
     57 H21         -4.4170     1.7330    -1.1330 ha         1 9C9       0.108000
     58 H22         -7.0480    -0.1820     1.7160 ha         1 9C9       0.109000
     59 H23         -5.1030    -1.2510     2.7840 ha         1 9C9       0.111000
     60 H24         -2.8290    -0.8640     1.9370 ha         1 9C9       0.145000
     61 H25         -6.2110     2.7380    -2.1500 h4         1 9C9       0.036100
     62 H26        -10.9230     1.9660    -1.9140 h1         1 9C9       0.057033
     63 H27        -10.9590     1.7380    -0.1400 h1         1 9C9       0.057033
     64 H28        -10.7560     3.3770    -0.8250 h1         1 9C9       0.057033
     65 H29         -8.7720     0.7860     0.7380 h4         1 9C9       0.154000
     66 Cl1          1.9520    -1.9990     2.4590 cl         1 9C9      -0.201500
@<TRIPOS>BOND
     1     1     2 2   
     2     1    11 1   
     3     1    20 1   
     4     3     4 ar  
     5     3     9 ar  
     6     3    66 1   
     7     4     5 ar  
     8     4    37 1   
     9     5     6 ar  
    10     5    38 1   
    11     6     7 ar  
    12     6    39 1   
    13     7     8 1   
    14     7     9 ar  
    15     9    10 1   
    16    10    11 1   
    17    10    40 1   
    18    10    41 1   
    19    11    12 1   
    20    11    42 1   
    21    12    13 1   
    22    12    43 1   
    23    12    44 1   
    24    13    14 1   
    25    13    45 1   
    26    14    15 2   
    27    14    19 1   
    28    15    16 1   
    29    16    17 1   
    30    16    18 1   
    31    17    46 1   
    32    17    47 1   
    33    17    48 1   
    34    18    49 1   
    35    18    50 1   
    36    18    51 1   
    37    19    20 1   
    38    19    52 1   
    39    19    53 1   
    40    20    21 1   
    41    21    22 1   
    42    21    54 1   
    43    21    55 1   
    44    22    23 2   
    45    22    24 1   
    46    24    25 1   
    47    24    56 1   
    48    25    26 ar  
    49    25    30 ar  
    50    26    27 ar  
    51    26    57 1   
    52    27    28 ar  
    53    27    31 1   
    54    28    29 ar  
    55    28    58 1   
    56    29    30 ar  
    57    29    59 1   
    58    30    60 1   
    59    31    32 1   
    60    31    36 2   
    61    32    33 2   
    62    32    61 1   
    63    33    34 1   
    64    34    35 1   
    65    34    36 1   
    66    35    62 1   
    67    35    63 1   
    68    35    64 1   
    69    36    65 1   
@<TRIPOS>SUBSTRUCTURE
     1 9C9         1 TEMP              0 ****  ****    0 ROOT
