@<TRIPOS>MOLECULE
9CA
   22    24     1     0     0
SMALL
abcg2


@<TRIPOS>ATOM
      1 C9A          1.1230    -0.8590    -0.0080 ca         1 9CA      -0.001700
      2 C1           2.4660    -1.2270    -0.0080 ca         1 9CA      -0.145000
      3 C2           3.4070    -0.2120    -0.0200 ca         1 9CA      -0.079000
      4 C3           3.0300     1.1370    -0.0300 ca         1 9CA      -0.148000
      5 C4           1.6940     1.4970    -0.0290 ca         1 9CA      -0.050000
      6 C4A          0.7260     0.4940    -0.0190 cp         1 9CA      -0.088000
      7 C4B         -0.7150     0.4970    -0.0150 cp         1 9CA      -0.088000
      8 C5          -1.6790     1.5030    -0.0220 ca         1 9CA      -0.050000
      9 C6          -3.0170     1.1480    -0.0140 ca         1 9CA      -0.148000
     10 C7          -3.3980    -0.2000     0.0010 ca         1 9CA      -0.079000
     11 C8          -2.4610    -1.2180     0.0070 ca         1 9CA      -0.145000
     12 C8A         -1.1160    -0.8550    -0.0010 ca         1 9CA      -0.001700
     13 N9           0.0020    -1.6470     0.0030 na         1 9CA      -0.234600
     14 H1           2.7640    -2.2670     0.0000 ha         1 9CA       0.115000
     15 H2           4.4590    -0.4680    -0.0200 ha         1 9CA       0.110000
     16 H3           3.7950     1.9030    -0.0380 ha         1 9CA       0.113000
     17 H4           1.4060     2.5410    -0.0380 ha         1 9CA       0.115000
     18 H5          -1.3880     2.5460    -0.0330 ha         1 9CA       0.115000
     19 H6          -3.7780     1.9160    -0.0190 ha         1 9CA       0.113000
     20 H7          -4.4510    -0.4520     0.0060 ha         1 9CA       0.110000
     21 H8          -2.7620    -2.2570     0.0200 ha         1 9CA       0.115000
     22 HN9         -0.0010    -2.6530     0.0110 hn         1 9CA       0.352000
@<TRIPOS>BOND
     1     1     2 ar  
     2     1     6 ar  
     3     1    13 1   
     4     2     3 ar  
     5     2    14 1   
     6     3     4 ar  
     7     3    15 1   
     8     4     5 ar  
     9     4    16 1   
    10     5     6 ar  
    11     5    17 1   
    12     6     7 1   
    13     7     8 ar  
    14     7    12 ar  
    15     8     9 ar  
    16     8    18 1   
    17     9    10 ar  
    18     9    19 1   
    19    10    11 ar  
    20    10    20 1   
    21    11    12 ar  
    22    11    21 1   
    23    12    13 1   
    24    13    22 1   
@<TRIPOS>SUBSTRUCTURE
     1 9CA         1 TEMP              0 ****  ****    0 ROOT
