@<TRIPOS>MOLECULE
9CA
   22    24     1     0     0
SMALL
No Charge or Current Charge


@<TRIPOS>ATOM
      1 C9A          1.1640    -0.8770    -0.0070 ca         1 9CA      -0.001700
      2 C1           2.5140    -1.2400    -0.0080 ca         1 9CA      -0.145000
      3 C2           3.4650    -0.1960    -0.0200 ca         1 9CA      -0.079000
      4 C3           3.0480     1.1600    -0.0310 ca         1 9CA      -0.148000
      5 C4           1.6750     1.4950    -0.0300 ca         1 9CA      -0.050000
      6 C4A          0.7340     0.4480    -0.0180 cp         1 9CA      -0.088000
      7 C4B         -0.7230     0.4500    -0.0140 cp         1 9CA      -0.088000
      8 C5          -1.6610     1.5010    -0.0210 ca         1 9CA      -0.050000
      9 C6          -3.0350     1.1710    -0.0140 ca         1 9CA      -0.148000
     10 C7          -3.4560    -0.1840    -0.0000 ca         1 9CA      -0.079000
     11 C8          -2.5090    -1.2310     0.0070 ca         1 9CA      -0.145000
     12 C8A         -1.1580    -0.8720    -0.0000 ca         1 9CA      -0.001700
     13 N9           0.0020    -1.6630     0.0030 na         1 9CA      -0.234600
     14 H1           2.8200    -2.2830     0.0010 ha         1 9CA       0.115000
     15 H2           4.5270    -0.4340    -0.0210 ha         1 9CA       0.110000
     16 H3           3.7940     1.9510    -0.0400 ha         1 9CA       0.113000
     17 H4           1.3530     2.5340    -0.0390 ha         1 9CA       0.115000
     18 H5          -1.3350     2.5390    -0.0310 ha         1 9CA       0.115000
     19 H6          -3.7780     1.9650    -0.0190 ha         1 9CA       0.113000
     20 H7          -4.5190    -0.4180     0.0050 ha         1 9CA       0.110000
     21 H8          -2.8190    -2.2730     0.0170 ha         1 9CA       0.115000
     22 HN9          0.0000    -2.6760     0.0130 hn         1 9CA       0.352000
@<TRIPOS>BOND
     1     1     2 ar  
     2     1     6 ar  
     3     1    13 1   
     4     2     3 ar  
     5     2    14 1   
     6     3     4 ar  
     7     3    15 1   
     8     4     5 ar  
     9     4    16 1   
    10     5     6 ar  
    11     5    17 1   
    12     6     7 1   
    13     7     8 ar  
    14     7    12 ar  
    15     8     9 ar  
    16     8    18 1   
    17     9    10 ar  
    18     9    19 1   
    19    10    11 ar  
    20    10    20 1   
    21    11    12 ar  
    22    11    21 1   
    23    12    13 1   
    24    13    22 1   
@<TRIPOS>SUBSTRUCTURE
     1 9CA         1 TEMP              0 ****  ****    0 ROOT
