@<TRIPOS>MOLECULE
9CB
   39    41     1     0     0
SMALL
bcc


@<TRIPOS>ATOM
      1 OAE          6.6580     1.4410     1.4540 oh         1 9CB      -0.598800
      2 CAD          5.8290     2.1160     0.5370 c3         1 9CB       0.110400
      3 CAC          5.7070     1.2740    -0.7190 c3         1 9CB       0.225800
      4 NAB          5.1130    -0.0300    -0.5030 nh         1 9CB      -0.670000
      5 CAA          5.9950    -1.1420    -0.2240 c3         1 9CB       0.217100
      6 CAF          3.7710    -0.1880    -0.3800 ca         1 9CB       0.236600
      7 CAK          2.8620     0.8770    -0.5800 ca         1 9CB      -0.231000
      8 CAJ          1.5040     0.6840    -0.4860 ca         1 9CB      -0.033500
      9 CAG          3.2120    -1.4420    -0.0520 ca         1 9CB      -0.231000
     10 CAH          1.8470    -1.6200     0.0320 ca         1 9CB      -0.033500
     11 CAI          0.9550    -0.5690    -0.1900 ca         1 9CB      -0.234900
     12 CAL         -0.4960    -0.7200    -0.1050 cc         1 9CB       0.593500
     13 NAM         -1.2490     0.3250     0.0190 nd         1 9CB      -0.651100
     14 CAN         -2.6010     0.1440     0.0920 ca         1 9CB       0.212400
     15 CAT         -3.4180     1.2780     0.2150 ca         1 9CB      -0.127000
     16 CAR         -4.7810     1.1210     0.3030 ca         1 9CB       0.063400
     17 CL          -5.7830     2.5220     0.4570 cl         1 9CB      -0.105400
     18 CAQ         -5.3890    -0.1380     0.2740 ca         1 9CB      -0.155000
     19 CAP         -4.5910    -1.2530     0.1520 ca         1 9CB      -0.046000
     20 CAO         -3.2030    -1.1250     0.0610 ca         1 9CB      -0.217600
     21 CAU         -2.3510    -2.2950    -0.0830 c          1 9CB       0.723100
     22 OAV         -2.7350    -3.4490    -0.1390 o          1 9CB      -0.615500
     23 NAW         -1.0120    -1.9840    -0.1690 ns         1 9CB      -0.494400
     24 H1           6.6530     1.9300     2.2820 ho         1 9CB       0.409000
     25 H2           4.8340     2.3040     0.9580 h1         1 9CB       0.029200
     26 H3           6.2420     3.0920     0.2500 h1         1 9CB       0.029200
     27 H4           5.1450     1.8320    -1.4700 h1         1 9CB       0.060700
     28 H5           6.6980     1.1220    -1.1510 h1         1 9CB       0.060700
     29 H6           5.9380    -1.4720     0.8170 h1         1 9CB       0.042033
     30 H7           5.7730    -1.9960    -0.8660 h1         1 9CB       0.042033
     31 H8           7.0200    -0.8430    -0.4200 h1         1 9CB       0.042033
     32 H9           3.2130     1.8700    -0.8180 ha         1 9CB       0.134500
     33 H10          0.8440     1.5250    -0.6530 ha         1 9CB       0.138500
     34 H11          3.8450    -2.2940     0.1450 ha         1 9CB       0.134500
     35 H12          1.4990    -2.6070     0.3090 ha         1 9CB       0.138500
     36 H13         -2.9600     2.2580     0.2400 ha         1 9CB       0.164000
     37 H14         -6.4630    -0.2320     0.3450 ha         1 9CB       0.152000
     38 H15         -5.0420    -2.2360     0.1260 ha         1 9CB       0.156000
     39 H16         -0.3890    -2.7660    -0.3220 hn         1 9CB       0.331500
@<TRIPOS>BOND
     1     1     2 1   
     2     1    24 1   
     3     2     3 1   
     4     2    25 1   
     5     2    26 1   
     6     3     4 1   
     7     3    27 1   
     8     3    28 1   
     9     4     5 1   
    10     4     6 1   
    11     5    29 1   
    12     5    30 1   
    13     5    31 1   
    14     6     7 ar  
    15     6     9 ar  
    16     7     8 ar  
    17     7    32 1   
    18     8    11 ar  
    19     8    33 1   
    20     9    10 ar  
    21     9    34 1   
    22    10    11 ar  
    23    10    35 1   
    24    11    12 1   
    25    12    13 2   
    26    12    23 1   
    27    13    14 1   
    28    14    15 ar  
    29    14    20 ar  
    30    15    16 ar  
    31    15    36 1   
    32    16    17 1   
    33    16    18 ar  
    34    18    19 ar  
    35    18    37 1   
    36    19    20 ar  
    37    19    38 1   
    38    20    21 1   
    39    21    22 2   
    40    21    23 1   
    41    23    39 1   
@<TRIPOS>SUBSTRUCTURE
     1 9CB         1 TEMP              0 ****  ****    0 ROOT
