@<TRIPOS>MOLECULE
9CB
   39    41     1     0     0
SMALL
No Charge or Current Charge


@<TRIPOS>ATOM
      1 OAE          6.0870     1.2930     1.9930 oh         1 9CB      -0.661000
      2 CAD          5.5580     2.0070     0.8570 c3         1 9CB       0.133600
      3 CAC          5.8690     1.2780    -0.4850 c3         1 9CB       0.225800
      4 NAB          5.2180    -0.0540    -0.6650 nh         1 9CB      -0.808400
      5 CAA          6.1130    -1.2310    -0.7570 c3         1 9CB       0.217100
      6 CAF          3.8170    -0.2080    -0.5340 ca         1 9CB       0.375000
      7 CAK          2.9400     0.7590    -1.0530 ca         1 9CB      -0.213000
      8 CAJ          1.5490     0.6150    -0.9260 ca         1 9CB      -0.015500
      9 CAG          3.2720    -1.3240     0.1250 ca         1 9CB      -0.213000
     10 CAH          1.8820    -1.4780     0.2570 ca         1 9CB      -0.015500
     11 CAI          0.9970    -0.5190    -0.2880 ca         1 9CB      -0.234900
     12 CAL         -0.4590    -0.6420    -0.1250 cc         1 9CB       0.593500
     13 NAM         -1.2210     0.4520    -0.0760 nd         1 9CB      -0.651100
     14 CAN         -2.5960     0.2070     0.0730 ca         1 9CB       0.212400
     15 CAT         -3.4490     1.3220     0.1430 ca         1 9CB      -0.109000
     16 CAR         -4.8340     1.1580     0.2930 ca         1 9CB       0.155000
     17 Cl          -5.8810     2.5680     0.3790 cl         1 9CB      -0.197000
     18 CAQ         -5.3860    -0.1280     0.3740 ca         1 9CB      -0.137000
     19 CAP         -4.5480    -1.2520     0.3050 ca         1 9CB      -0.028000
     20 CAO         -3.1550    -1.0820     0.1540 ca         1 9CB      -0.217600
     21 CAU         -2.2470    -2.2480     0.0710 c          1 9CB       0.580600
     22 OAV         -2.6180    -3.4100     0.1160 o          1 9CB      -0.540000
     23 NAW         -0.9460    -1.9190    -0.0680 ns         1 9CB      -0.427400
     24 H1           5.7940     1.7750     2.7980 ho         1 9CB       0.448000
     25 H2           4.4710     2.1300     0.9570 h1         1 9CB       0.029200
     26 H3           5.9960     3.0130     0.8130 h1         1 9CB       0.029200
     27 H4           5.5760     1.9400    -1.3100 h1         1 9CB       0.060700
     28 H5           6.9610     1.1760    -0.5590 h1         1 9CB       0.060700
     29 H6           6.4190    -1.5630     0.2440 h1         1 9CB       0.042033
     30 H7           5.6080    -2.0640    -1.2650 h1         1 9CB       0.042033
     31 H8           7.0150    -0.9910    -1.3370 h1         1 9CB       0.042033
     32 H9           3.3320     1.6290    -1.5690 ha         1 9CB       0.116500
     33 H10          0.9010     1.3850    -1.3410 ha         1 9CB       0.120500
     34 H11          3.9250    -2.0730     0.5610 ha         1 9CB       0.116500
     35 H12          1.5060    -2.3420     0.8020 ha         1 9CB       0.120500
     36 H13         -3.0330     2.3230     0.0810 ha         1 9CB       0.146000
     37 H14         -6.4590    -0.2530     0.4900 ha         1 9CB       0.134000
     38 H15         -4.9810    -2.2490     0.3670 ha         1 9CB       0.138000
     39 H16         -0.3020    -2.6890    -0.1570 hn         1 9CB       0.331500
@<TRIPOS>BOND
     1     1     2 1   
     2     1    24 1   
     3     2     3 1   
     4     2    25 1   
     5     2    26 1   
     6     3     4 1   
     7     3    27 1   
     8     3    28 1   
     9     4     5 1   
    10     4     6 1   
    11     5    29 1   
    12     5    30 1   
    13     5    31 1   
    14     6     7 ar  
    15     6     9 ar  
    16     7     8 ar  
    17     7    32 1   
    18     8    11 ar  
    19     8    33 1   
    20     9    10 ar  
    21     9    34 1   
    22    10    11 ar  
    23    10    35 1   
    24    11    12 1   
    25    12    13 2   
    26    12    23 1   
    27    13    14 1   
    28    14    15 ar  
    29    14    20 ar  
    30    15    16 ar  
    31    15    36 1   
    32    16    17 1   
    33    16    18 ar  
    34    18    19 ar  
    35    18    37 1   
    36    19    20 ar  
    37    19    38 1   
    38    20    21 1   
    39    21    22 2   
    40    21    23 1   
    41    23    39 1   
@<TRIPOS>SUBSTRUCTURE
     1 9CB         1 TEMP              0 ****  ****    0 ROOT
