@<TRIPOS>MOLECULE
9CC
   41    43     1     0     0
SMALL
No Charge or Current Charge


@<TRIPOS>ATOM
      1 C1          -3.4460    -1.2210    -0.0560 ca         1 9CC       0.267100
      2 C8          -0.9880    -1.2090    -0.7180 c          1 9CC       0.701700
      3 C4          -3.4600     1.5720     0.1330 ca         1 9CC      -0.265000
      4 C3          -4.6260     0.8450     0.3960 ca         1 9CC       0.217100
      5 C7           0.2150     0.8380    -0.0950 c6         1 9CC       0.200300
      6 C6          -1.0070     1.6770    -0.5040 c6         1 9CC      -0.083100
      7 C2          -4.6180    -0.5480     0.3020 ca         1 9CC      -0.223000
      8 C5          -2.2780     0.9000    -0.2180 ca         1 9CC       0.046700
      9 C9          -2.2590    -0.5050    -0.3110 ca         1 9CC      -0.353600
     10 C10          1.5620     1.5170    -0.4800 c3         1 9CC      -0.071400
     11 C11          2.8400     0.8790     0.1370 c6         1 9CC       0.176300
     12 C12          4.1850    -1.1730    -0.0080 c6         1 9CC       0.171300
     13 C13          5.4960    -0.3530    -0.1520 c6         1 9CC      -0.106400
     14 C14          5.3630     1.0630     0.4660 c6         1 9CC      -0.071400
     15 O3           0.1590    -0.4590    -0.7160 os         1 9CC      -0.406100
     16 C15          4.0930     1.7710    -0.0650 c6         1 9CC      -0.108400
     17 C16          3.8900    -1.6540     1.4420 c3         1 9CC      -0.121100
     18 O5           3.0610    -0.4010    -0.5010 os         1 9CC      -0.439000
     19 O4          -0.9840    -2.3880    -1.0470 o          1 9CC      -0.555000
     20 O2          -5.7720     1.4920     0.7390 oh         1 9CC      -0.522100
     21 O1          -3.4810    -2.5760    -0.1550 oh         1 9CC      -0.535100
     22 H1          -3.4640     2.6570     0.2000 ha         1 9CC       0.118000
     23 H2           0.1910     0.6990     0.9960 h1         1 9CC       0.057700
     24 H3          -1.0070     2.6280     0.0460 hc         1 9CC       0.070200
     25 H4          -0.9580     1.9260    -1.5730 hc         1 9CC       0.070200
     26 H5          -5.5260    -1.1090     0.5000 ha         1 9CC       0.150000
     27 H6           1.6580     1.5540    -1.5720 hc         1 9CC       0.062200
     28 H7           1.5170     2.5640    -0.1560 hc         1 9CC       0.062200
     29 H8           2.6630     0.7340     1.2120 h1         1 9CC       0.027700
     30 H9           4.2700    -2.0730    -0.6350 h1         1 9CC       0.074700
     31 H10          6.3330    -0.8920     0.3130 hc         1 9CC       0.049700
     32 H11          5.7440    -0.2620    -1.2180 hc         1 9CC       0.049700
     33 H12          5.3190     0.9930     1.5610 hc         1 9CC       0.041200
     34 H13          6.2540     1.6610     0.2300 hc         1 9CC       0.041200
     35 H14          4.2160     2.0020    -1.1320 hc         1 9CC       0.047200
     36 H15          3.9600     2.7320     0.4520 hc         1 9CC       0.047200
     37 H16          3.9110    -0.8380     2.1730 hc         1 9CC       0.040033
     38 H17          2.9080    -2.1380     1.5020 hc         1 9CC       0.040033
     39 H18          4.6380    -2.3900     1.7600 hc         1 9CC       0.040033
     40 H19         -5.5830     2.4540     0.7500 ho         1 9CC       0.471000
     41 H20         -2.5980    -2.8490    -0.5080 ho         1 9CC       0.520000
@<TRIPOS>BOND
     1     1     7 ar  
     2     1     9 ar  
     3     1    21 1   
     4     2     9 1   
     5     2    15 1   
     6     2    19 2   
     7     3     4 ar  
     8     3     8 ar  
     9     3    22 1   
    10     4     7 ar  
    11     4    20 1   
    12     5     6 1   
    13     5    10 1   
    14     5    15 1   
    15     5    23 1   
    16     6     8 1   
    17     6    24 1   
    18     6    25 1   
    19     7    26 1   
    20     8     9 ar  
    21    10    11 1   
    22    10    27 1   
    23    10    28 1   
    24    11    16 1   
    25    11    18 1   
    26    11    29 1   
    27    12    13 1   
    28    12    17 1   
    29    12    18 1   
    30    12    30 1   
    31    13    14 1   
    32    13    31 1   
    33    13    32 1   
    34    14    16 1   
    35    14    33 1   
    36    14    34 1   
    37    16    35 1   
    38    16    36 1   
    39    17    37 1   
    40    17    38 1   
    41    17    39 1   
    42    20    40 1   
    43    21    41 1   
@<TRIPOS>SUBSTRUCTURE
     1 9CC         1 TEMP              0 ****  ****    0 ROOT
