@<TRIPOS>MOLECULE
9CC
   41    43     1     0     0
SMALL
bcc


@<TRIPOS>ATOM
      1 C1          -3.3920    -1.1980    -0.2320 ca         1 9CC       0.267100
      2 C8          -0.9930    -1.1090    -0.8650 c          1 9CC       0.777200
      3 C4          -3.3620     1.5520     0.2840 ca         1 9CC      -0.283000
      4 C3          -4.5280     0.7990     0.4680 ca         1 9CC       0.217100
      5 C7           0.2600     0.7970    -0.1380 c6         1 9CC       0.177100
      6 C6          -0.9450     1.6800    -0.3940 c6         1 9CC      -0.083100
      7 C2          -4.5460    -0.5660     0.2120 ca         1 9CC      -0.241000
      8 C5          -2.2130     0.9250    -0.1440 ca         1 9CC       0.046700
      9 C9          -2.2030    -0.4540    -0.3930 ca         1 9CC      -0.353600
     10 C10          1.5620     1.4670    -0.5350 c3         1 9CC      -0.071400
     11 C11          2.8140     0.8800     0.0940 c6         1 9CC       0.153100
     12 C12          4.0710    -1.1570     0.1790 c6         1 9CC       0.148100
     13 C13          5.3730    -0.4070    -0.0970 c6         1 9CC      -0.106400
     14 C14          5.2950     1.0470     0.3560 c6         1 9CC      -0.071400
     15 O3           0.1400    -0.4330    -0.8820 os         1 9CC      -0.382900
     16 C15          4.0520     1.7060    -0.2300 c6         1 9CC      -0.108400
     17 C16          3.8820    -1.5050     1.6510 c3         1 9CC      -0.121100
     18 O5           2.9610    -0.4510    -0.3580 os         1 9CC      -0.392600
     19 O4          -0.9770    -2.2650    -1.2670 o          1 9CC      -0.630500
     20 O2          -5.6670     1.3560     0.8920 oh         1 9CC      -0.483100
     21 O1          -3.4500    -2.5020    -0.4900 oh         1 9CC      -0.496100
     22 H1          -3.3630     2.6190     0.4770 ha         1 9CC       0.136000
     23 H2           0.2860     0.5340     0.9260 h1         1 9CC       0.057700
     24 H3          -0.8880     2.5540     0.2550 hc         1 9CC       0.070200
     25 H4          -0.9300     2.0480    -1.4260 hc         1 9CC       0.070200
     26 H5          -5.4560    -1.1370     0.3480 ha         1 9CC       0.168000
     27 H6           1.6480     1.4880    -1.6260 hc         1 9CC       0.062200
     28 H7           1.4980     2.5100    -0.2140 hc         1 9CC       0.062200
     29 H8           2.6730     0.8970     1.1870 h1         1 9CC       0.027700
     30 H9           4.0890    -2.0960    -0.3810 h1         1 9CC       0.074700
     31 H10          6.2040    -0.9240     0.3890 hc         1 9CC       0.049700
     32 H11          5.5750    -0.4340    -1.1720 hc         1 9CC       0.049700
     33 H12          5.2610     1.1090     1.4480 hc         1 9CC       0.041200
     34 H13          6.1940     1.5840     0.0470 hc         1 9CC       0.041200
     35 H14          4.1560     1.7920    -1.3170 hc         1 9CC       0.047200
     36 H15          3.9270     2.7190     0.1620 hc         1 9CC       0.047200
     37 H16          3.9600    -0.6430     2.3150 hc         1 9CC       0.040033
     38 H17          2.9080    -1.9680     1.8140 hc         1 9CC       0.040033
     39 H18          4.6450    -2.2210     1.9600 hc         1 9CC       0.040033
     40 H19         -5.5540     2.3030     1.0330 ho         1 9CC       0.432000
     41 H20         -2.5760    -2.7760    -0.8460 ho         1 9CC       0.481000
@<TRIPOS>BOND
     1     1     7 ar  
     2     1     9 ar  
     3     1    21 1   
     4     2     9 1   
     5     2    15 1   
     6     2    19 2   
     7     3     4 ar  
     8     3     8 ar  
     9     3    22 1   
    10     4     7 ar  
    11     4    20 1   
    12     5     6 1   
    13     5    10 1   
    14     5    15 1   
    15     5    23 1   
    16     6     8 1   
    17     6    24 1   
    18     6    25 1   
    19     7    26 1   
    20     8     9 ar  
    21    10    11 1   
    22    10    27 1   
    23    10    28 1   
    24    11    16 1   
    25    11    18 1   
    26    11    29 1   
    27    12    13 1   
    28    12    17 1   
    29    12    18 1   
    30    12    30 1   
    31    13    14 1   
    32    13    31 1   
    33    13    32 1   
    34    14    16 1   
    35    14    33 1   
    36    14    34 1   
    37    16    35 1   
    38    16    36 1   
    39    17    37 1   
    40    17    38 1   
    41    17    39 1   
    42    20    40 1   
    43    21    41 1   
@<TRIPOS>SUBSTRUCTURE
     1 9CC         1 TEMP              0 ****  ****    0 ROOT
