@<TRIPOS>MOLECULE
9CD
   34    34     1     0     0
SMALL
No Charge or Current Charge


@<TRIPOS>ATOM
      1 O01          0.2830     2.5400     0.3760 oh         1 9CD      -0.639000
      2 C02          0.7790     1.3230    -0.2030 c6         1 9CD       0.159300
      3 C03          2.2550     1.1010     0.2470 c6         1 9CD       0.096300
      4 O04          3.0600     2.2350    -0.1510 oh         1 9CD      -0.724000
      5 C05          2.7740    -0.2410    -0.3630 c6         1 9CD       0.156300
      6 C06          4.2240    -0.6050     0.1030 c3         1 9CD       0.170600
      7 O07          4.6830    -1.8750    -0.4030 oh         1 9CD      -0.706000
      8 O08          1.8880    -1.3210     0.0270 os         1 9CD      -0.470000
      9 C09          0.5460    -1.1740    -0.4440 c6         1 9CD       0.385300
     10 C10         -0.1130     0.1030     0.1750 c6         1 9CD       0.085700
     11 N11         -1.5130     0.3030    -0.2820 ns         1 9CD      -0.489900
     12 C12         -2.6360    -0.1680     0.3510 c          1 9CD       0.619300
     13 C13         -3.9090     0.1550    -0.3500 ce         1 9CD      -0.309200
     14 C14         -5.1390    -0.0820     0.1640 c2         1 9CD      -0.131200
     15 C15         -6.4450     0.2560    -0.5200 c3         1 9CD      -0.072900
     16 O16         -2.5950    -0.7630     1.4170 o          1 9CD      -0.596100
     17 H1           1.0320     3.1730     0.2970 ho         1 9CD       0.455000
     18 H2           0.7730     1.4190    -1.2990 h1         1 9CD       0.034700
     19 H3           2.2640     1.0000     1.3440 h1         1 9CD       0.063700
     20 H4           3.8470     2.2720     0.4440 ho         1 9CD       0.512000
     21 H5           2.7780    -0.1650    -1.4610 h1         1 9CD       0.056700
     22 H6           4.9040     0.1910    -0.2270 h1         1 9CD       0.027200
     23 H7           4.2380    -0.6130     1.2020 h1         1 9CD       0.027200
     24 H8           5.5650    -2.0440     0.0040 ho         1 9CD       0.505000
     25 H9           0.5460    -1.1090    -1.5420 h2         1 9CD       0.011700
     26 H11         -0.1080    -0.0070     1.2680 h1         1 9CD       0.122700
     27 H12         -1.6660     0.8260    -1.1350 hn         1 9CD       0.305500
     28 H13         -3.8100     0.6370    -1.3210 ha         1 9CD       0.171000
     29 H14         -5.2520    -0.5520     1.1450 ha         1 9CD       0.194000
     30 H15         -7.3030    -0.0400     0.0960 hc         1 9CD       0.047033
     31 H16         -6.5240     1.3330    -0.7080 hc         1 9CD       0.047033
     32 H17         -6.5310    -0.2610    -1.4830 hc         1 9CD       0.047033
     33 O1          -0.1010    -2.3620    -0.0380 oh         1 9CD      -0.619000
     34 H10          0.6450    -2.9600     0.1730 ho         1 9CD       0.458000
@<TRIPOS>BOND
     1     1     2 1   
     2     1    17 1   
     3     2     3 1   
     4     2    10 1   
     5     2    18 1   
     6     3     4 1   
     7     3     5 1   
     8     3    19 1   
     9     4    20 1   
    10     5     6 1   
    11     5     8 1   
    12     5    21 1   
    13     6     7 1   
    14     6    22 1   
    15     6    23 1   
    16     7    24 1   
    17     8     9 1   
    18     9    10 1   
    19     9    25 1   
    20     9    33 1   
    21    10    11 1   
    22    10    26 1   
    23    11    12 1   
    24    11    27 1   
    25    12    13 1   
    26    12    16 2   
    27    13    14 2   
    28    13    28 1   
    29    14    15 1   
    30    14    29 1   
    31    15    30 1   
    32    15    31 1   
    33    15    32 1   
    34    33    34 1   
@<TRIPOS>SUBSTRUCTURE
     1 9CD         1 TEMP              0 ****  ****    0 ROOT
