@<TRIPOS>MOLECULE
9CD
   34    34     1     0     0
SMALL
bcc


@<TRIPOS>ATOM
      1 O01          0.1390     2.3240     0.4610 oh         1 9CD      -0.576800
      2 C02          0.7400     1.2170    -0.1550 c6         1 9CD       0.136100
      3 C03          2.1950     1.0480     0.2710 c6         1 9CD       0.073100
      4 O04          2.9000     2.1690    -0.2150 oh         1 9CD      -0.601800
      5 C05          2.7480    -0.2650    -0.2930 c6         1 9CD       0.133100
      6 C06          4.1650    -0.5330     0.1650 c3         1 9CD       0.147400
      7 O07          4.6380    -1.6960    -0.4710 oh         1 9CD      -0.583800
      8 O08          1.9350    -1.3320     0.1480 os         1 9CD      -0.423600
      9 C09          0.6180    -1.2740    -0.3410 c6         1 9CD       0.338900
     10 C10         -0.0790    -0.0210     0.1960 c6         1 9CD       0.085700
     11 N11         -1.4130     0.0860    -0.3290 ns         1 9CD      -0.556900
     12 C12         -2.5370     0.0200     0.4120 c          1 9CD       0.686300
     13 C13         -3.7810     0.1590    -0.3800 ce         1 9CD      -0.259200
     14 C14         -4.9830     0.1720     0.1930 c2         1 9CD      -0.081200
     15 C15         -6.2700     0.3120    -0.5380 c3         1 9CD      -0.072900
     16 O16         -2.5330    -0.1330     1.6280 o          1 9CD      -0.596100
     17 H1           0.6570     3.1040     0.2350 ho         1 9CD       0.416000
     18 H2           0.7340     1.3330    -1.2540 h1         1 9CD       0.034700
     19 H3           2.2330     1.0010     1.3680 h1         1 9CD       0.063700
     20 H4           3.6000     2.3940     0.4040 ho         1 9CD       0.413000
     21 H5           2.7370    -0.2060    -1.3940 h1         1 9CD       0.056700
     22 H6           4.7780     0.3390    -0.0860 h1         1 9CD       0.027200
     23 H7           4.1760    -0.6330     1.2590 h1         1 9CD       0.027200
     24 H8           5.5600    -1.8140    -0.2270 ho         1 9CD       0.406000
     25 H9           0.6440    -1.2310    -1.4440 h2         1 9CD       0.011700
     26 H11         -0.1470    -0.1070     1.2830 h1         1 9CD       0.122700
     27 H12         -1.5090     0.2350    -1.3220 hn         1 9CD       0.305500
     28 H13         -3.6910     0.2530    -1.4580 ha         1 9CD       0.121000
     29 H14         -5.0470     0.0780     1.2730 ha         1 9CD       0.144000
     30 H15         -6.9160    -0.5470    -0.3440 hc         1 9CD       0.047033
     31 H16         -6.8170     1.1900    -0.1870 hc         1 9CD       0.047033
     32 H17         -6.1280     0.4010    -1.6140 hc         1 9CD       0.047033
     33 O1          -0.0640    -2.3820     0.1070 oh         1 9CD      -0.556800
     34 H10          0.1540    -3.1370    -0.4490 ho         1 9CD       0.419000
@<TRIPOS>BOND
     1     1     2 1   
     2     1    17 1   
     3     2     3 1   
     4     2    10 1   
     5     2    18 1   
     6     3     4 1   
     7     3     5 1   
     8     3    19 1   
     9     4    20 1   
    10     5     6 1   
    11     5     8 1   
    12     5    21 1   
    13     6     7 1   
    14     6    22 1   
    15     6    23 1   
    16     7    24 1   
    17     8     9 1   
    18     9    10 1   
    19     9    25 1   
    20     9    33 1   
    21    10    11 1   
    22    10    26 1   
    23    11    12 1   
    24    11    27 1   
    25    12    13 1   
    26    12    16 2   
    27    13    14 2   
    28    13    28 1   
    29    14    15 1   
    30    14    29 1   
    31    15    30 1   
    32    15    31 1   
    33    15    32 1   
    34    33    34 1   
@<TRIPOS>SUBSTRUCTURE
     1 9CD         1 TEMP              0 ****  ****    0 ROOT
