@<TRIPOS>MOLECULE
9CE
   29    31     1     0     0
SMALL
No Charge or Current Charge


@<TRIPOS>ATOM
      1 NAR         -0.1160     1.3480     0.4500 ns         1 9CE      -0.427400
      2 CAP         -1.4340     1.6110     0.5560 c          1 9CE       0.578600
      3 OAQ         -1.8480     2.6930     0.9410 o          1 9CE      -0.539000
      4 CAK         -2.3030     0.4770     0.1670 ca         1 9CE      -0.209600
      5 CAL         -3.7090     0.5880     0.2180 ca         1 9CE      -0.035000
      6 CAM         -4.5130    -0.5000    -0.1540 ca         1 9CE      -0.139000
      7 CAN         -3.9160    -1.6960    -0.5760 ca         1 9CE      -0.071000
      8 CAO         -2.5150    -1.7990    -0.6240 ca         1 9CE      -0.116000
      9 CAJ         -1.6910    -0.7190    -0.2550 ca         1 9CE       0.202400
     10 NAI         -0.3010    -0.9090    -0.3330 nc         1 9CE      -0.680100
     11 CAH          0.4120     0.1640     0.0320 cd         1 9CE       0.597500
     12 CAG          1.8830     0.0900    -0.0230 ca         1 9CE      -0.251900
     13 CAF          2.6020     1.1720    -0.5840 ca         1 9CE      -0.044000
     14 CAE          4.0030     1.1320    -0.6720 ca         1 9CE      -0.175000
     15 CAD          4.7070     0.0120    -0.2090 ca         1 9CE      -0.034000
     16 CAC          4.0020    -1.0710     0.3360 ca         1 9CE      -0.210000
     17 CAB          2.6030    -1.0400     0.4240 ca         1 9CE       0.381000
     18 NAA          1.9720    -2.1170     0.9710 nv         1 9CE      -1.089000
     19 H1           0.5040     2.0950     0.7210 hn         1 9CE       0.333500
     20 H2          -4.1790     1.5150     0.5450 ha         1 9CE       0.135000
     21 H3          -5.5970    -0.4150    -0.1150 ha         1 9CE       0.119000
     22 H4          -4.5340    -2.5430    -0.8660 ha         1 9CE       0.116000
     23 H5          -2.0610    -2.7300    -0.9530 ha         1 9CE       0.126000
     24 H6           2.0780     2.0460    -0.9670 ha         1 9CE       0.109000
     25 H7           4.5440     1.9710    -1.1040 ha         1 9CE       0.121000
     26 H8           5.7930    -0.0180    -0.2770 ha         1 9CE       0.114000
     27 H9           4.5520    -1.9380     0.6920 ha         1 9CE       0.114000
     28 H10          2.4910    -2.9890     1.0420 hn         1 9CE       0.486500
     29 H11          0.9810    -2.2100     0.7410 hn         1 9CE       0.486500
@<TRIPOS>BOND
     1     1     2 1   
     2     1    11 1   
     3     1    19 1   
     4     2     3 2   
     5     2     4 1   
     6     4     5 ar  
     7     4     9 ar  
     8     5     6 ar  
     9     5    20 1   
    10     6     7 ar  
    11     6    21 1   
    12     7     8 ar  
    13     7    22 1   
    14     8     9 ar  
    15     8    23 1   
    16     9    10 1   
    17    10    11 2   
    18    11    12 1   
    19    12    13 ar  
    20    12    17 ar  
    21    13    14 ar  
    22    13    24 1   
    23    14    15 ar  
    24    14    25 1   
    25    15    16 ar  
    26    15    26 1   
    27    16    17 ar  
    28    16    27 1   
    29    17    18 1   
    30    18    28 1   
    31    18    29 1   
@<TRIPOS>SUBSTRUCTURE
     1 9CE         1 TEMP              0 ****  ****    0 ROOT
