@<TRIPOS>MOLECULE
9CE
   29    31     1     0     0
SMALL
abcg2


@<TRIPOS>ATOM
      1 NAR         -0.1210     1.4000     0.3040 ns         1 9CE      -0.427400
      2 CAP         -1.4690     1.6750     0.3600 c          1 9CE       0.578600
      3 OAQ         -1.8720     2.7940     0.6220 o          1 9CE      -0.539000
      4 CAK         -2.3070     0.5130     0.1000 ca         1 9CE      -0.209600
      5 CAL         -3.7000     0.6130     0.1250 ca         1 9CE      -0.035000
      6 CAM         -4.4740    -0.5020    -0.1090 ca         1 9CE      -0.139000
      7 CAN         -3.8600    -1.7330    -0.3700 ca         1 9CE      -0.071000
      8 CAO         -2.4870    -1.8440    -0.3950 ca         1 9CE      -0.116000
      9 CAJ         -1.6850    -0.7190    -0.1590 ca         1 9CE       0.202400
     10 NAI         -0.3210    -0.8600    -0.2020 nc         1 9CE      -0.680100
     11 CAH          0.4180     0.1760     0.0160 cd         1 9CE       0.597500
     12 CAG          1.8830     0.0880    -0.0360 ca         1 9CE      -0.251900
     13 CAF          2.6280     1.2130    -0.4130 ca         1 9CE      -0.044000
     14 CAE          4.0060     1.2000    -0.4570 ca         1 9CE      -0.175000
     15 CAD          4.6740     0.0270    -0.1080 ca         1 9CE      -0.034000
     16 CAC          3.9690    -1.1010     0.2520 ca         1 9CE      -0.210000
     17 CAB          2.5620    -1.1140     0.2840 ca         1 9CE       0.381000
     18 NAA          1.9180    -2.2450     0.6780 nv         1 9CE      -1.089000
     19 H1           0.4980     2.1660     0.5380 hn         1 9CE       0.333500
     20 H2          -4.1630     1.5690     0.3320 ha         1 9CE       0.135000
     21 H3          -5.5530    -0.4290    -0.0930 ha         1 9CE       0.119000
     22 H4          -4.4710    -2.6070    -0.5560 ha         1 9CE       0.116000
     23 H5          -2.0090    -2.7940    -0.6010 ha         1 9CE       0.126000
     24 H6           2.1160     2.1190    -0.7130 ha         1 9CE       0.109000
     25 H7           4.5520     2.0800    -0.7640 ha         1 9CE       0.121000
     26 H8           5.7550    -0.0100    -0.1290 ha         1 9CE       0.114000
     27 H9           4.5010    -2.0080     0.5140 ha         1 9CE       0.114000
     28 H10          2.4630    -3.0900     0.7190 hn         1 9CE       0.486500
     29 H11          0.9610    -2.3560     0.3850 hn         1 9CE       0.486500
@<TRIPOS>BOND
     1     1     2 1   
     2     1    11 1   
     3     1    19 1   
     4     2     3 2   
     5     2     4 1   
     6     4     5 ar  
     7     4     9 ar  
     8     5     6 ar  
     9     5    20 1   
    10     6     7 ar  
    11     6    21 1   
    12     7     8 ar  
    13     7    22 1   
    14     8     9 ar  
    15     8    23 1   
    16     9    10 1   
    17    10    11 2   
    18    11    12 1   
    19    12    13 ar  
    20    12    17 ar  
    21    13    14 ar  
    22    13    24 1   
    23    14    15 ar  
    24    14    25 1   
    25    15    16 ar  
    26    15    26 1   
    27    16    17 ar  
    28    16    27 1   
    29    17    18 1   
    30    18    28 1   
    31    18    29 1   
@<TRIPOS>SUBSTRUCTURE
     1 9CE         1 TEMP              0 ****  ****    0 ROOT
