@<TRIPOS>MOLECULE
9CF
   41    43     1     0     0
SMALL
bcc


@<TRIPOS>ATOM
      1 C15          4.0610     1.8280     0.1570 c6         1 9CF      -0.109400
      2 C14          5.3070     1.2020    -0.4590 c6         1 9CF      -0.072400
      3 C13          5.3800    -0.2800    -0.1080 c6         1 9CF      -0.111400
      4 C12          4.0710    -0.9780    -0.4580 c6         1 9CF       0.149100
      5 C16          4.0530    -2.4330    -0.0390 c3         1 9CF      -0.086100
      6 O5           2.9770    -0.3340     0.1730 os         1 9CF      -0.393600
      7 C11          2.8230     1.0160    -0.2050 c6         1 9CF       0.155100
      8 C10          1.5710     1.5720     0.4500 c3         1 9CF      -0.071400
      9 C7           0.2690     0.9050     0.0450 c6         1 9CF       0.177100
     10 C6          -0.9380     1.7680     0.3510 c6         1 9CF      -0.082100
     11 O3           0.1720    -0.3530     0.7440 os         1 9CF      -0.381900
     12 C8          -0.9560    -1.0380     0.7160 c          1 9CF       0.777200
     13 O4          -0.9270    -2.2080     1.0730 o          1 9CF      -0.632500
     14 C9          -2.1770    -0.3750     0.2830 ca         1 9CF      -0.355600
     15 C5          -2.2040     1.0140     0.0900 ca         1 9CF       0.039700
     16 C4          -3.3630     1.6480    -0.2960 ca         1 9CF      -0.220000
     17 C3          -4.5260     0.8920    -0.4910 ca         1 9CF       0.220100
     18 O2          -5.6240     1.5540    -0.8700 oh         1 9CF      -0.486100
     19 C2          -4.5270    -0.4820    -0.2920 ca         1 9CF      -0.305000
     20 C1          -3.3600    -1.1230     0.1100 ca         1 9CF       0.273100
     21 O1          -3.4050    -2.4350     0.3170 oh         1 9CF      -0.499100
     22 H1           4.1620     1.8640     1.2470 hc         1 9CF       0.048200
     23 H2           3.9340     2.8580    -0.1860 hc         1 9CF       0.048200
     24 H3           5.2730     1.3170    -1.5470 hc         1 9CF       0.041200
     25 H4           6.2050     1.7220    -0.1190 hc         1 9CF       0.041200
     26 H5           6.2020    -0.7640    -0.6400 hc         1 9CF       0.050200
     27 H6           5.5760    -0.4030     0.9630 hc         1 9CF       0.050200
     28 H7           3.9370    -0.9190    -1.5510 h1         1 9CF       0.025700
     29 H8           4.2030    -2.5340     1.0380 hc         1 9CF       0.045700
     30 H9           3.1070    -2.9090    -0.3000 hc         1 9CF       0.045700
     31 H10          4.8530    -2.9770    -0.5410 hc         1 9CF       0.045700
     32 H11          2.6890     1.0730    -1.3000 h1         1 9CF       0.024700
     33 H12          1.6660     1.5600     1.5400 hc         1 9CF       0.062200
     34 H13          1.4970     2.6250     0.1630 hc         1 9CF       0.062200
     35 H14          0.2830     0.6830    -1.0290 h1         1 9CF       0.057700
     36 H15         -0.9110     2.0950     1.3970 hc         1 9CF       0.071700
     37 H16         -0.8960     2.6680    -0.2640 hc         1 9CF       0.071700
     38 H17         -3.3840     2.7200    -0.4460 ha         1 9CF       0.152000
     39 H18         -6.3700     0.9510    -0.9730 ho         1 9CF       0.436000
     40 H19         -5.4300    -1.0640    -0.4370 ha         1 9CF       0.153000
     41 H20         -2.5240    -2.7150     0.6520 ho         1 9CF       0.482000
@<TRIPOS>BOND
     1     1     2 1   
     2     1     7 1   
     3     1    22 1   
     4     1    23 1   
     5     2     3 1   
     6     2    24 1   
     7     2    25 1   
     8     3     4 1   
     9     3    26 1   
    10     3    27 1   
    11     4     5 1   
    12     4     6 1   
    13     4    28 1   
    14     5    29 1   
    15     5    30 1   
    16     5    31 1   
    17     6     7 1   
    18     7     8 1   
    19     7    32 1   
    20     8     9 1   
    21     8    33 1   
    22     8    34 1   
    23     9    10 1   
    24     9    11 1   
    25     9    35 1   
    26    10    15 1   
    27    10    36 1   
    28    10    37 1   
    29    11    12 1   
    30    12    13 2   
    31    12    14 1   
    32    14    15 ar  
    33    14    20 ar  
    34    15    16 ar  
    35    16    17 ar  
    36    16    38 1   
    37    17    18 1   
    38    17    19 ar  
    39    18    39 1   
    40    19    20 ar  
    41    19    40 1   
    42    20    21 1   
    43    21    41 1   
@<TRIPOS>SUBSTRUCTURE
     1 9CF         1 TEMP              0 ****  ****    0 ROOT
