@<TRIPOS>MOLECULE
9CF
   41    43     1     0     0
SMALL
No Charge or Current Charge


@<TRIPOS>ATOM
      1 C15          4.1080     1.8690    -0.0000 c6         1 9CF      -0.109400
      2 C14          5.3650     1.1950    -0.6020 c6         1 9CF      -0.072400
      3 C13          5.4850    -0.2670    -0.1070 c6         1 9CF      -0.111400
      4 C12          4.1580    -1.0320    -0.3530 c6         1 9CF       0.172300
      5 C16          4.1760    -2.4580     0.2440 c3         1 9CF      -0.086100
      6 O5           3.0660    -0.3240     0.2670 os         1 9CF      -0.440000
      7 C11          2.8460     1.0030    -0.2580 c6         1 9CF       0.178300
      8 C10          1.5770     1.5970     0.4180 c3         1 9CF      -0.071400
      9 C7           0.2240     0.9400     0.0140 c6         1 9CF       0.200300
     10 C6          -0.9920     1.7560     0.4830 c6         1 9CF      -0.082100
     11 O3           0.1740    -0.3880     0.5680 os         1 9CF      -0.405100
     12 C8          -0.9710    -1.1400     0.5360 c          1 9CF       0.701700
     13 O4          -0.9650    -2.3300     0.8220 o          1 9CF      -0.557000
     14 C9          -2.2480    -0.4140     0.1950 ca         1 9CF      -0.355600
     15 C5          -2.2680     0.9940     0.1790 ca         1 9CF       0.039700
     16 C4          -3.4570     1.6810    -0.1130 ca         1 9CF      -0.202000
     17 C3          -4.6280     0.9700    -0.3920 ca         1 9CF       0.220100
     18 O2          -5.7750     1.6430    -0.6760 oh         1 9CF      -0.525100
     19 C2          -4.6200    -0.4270    -0.3730 ca         1 9CF      -0.287000
     20 C1          -3.4400    -1.1160    -0.0740 ca         1 9CF       0.273100
     21 O1          -3.4750    -2.4720    -0.0470 oh         1 9CF      -0.538100
     22 H1           4.2450     2.0140     1.0800 hc         1 9CF       0.048200
     23 H2           3.9760     2.8680    -0.4380 hc         1 9CF       0.048200
     24 H3           5.3020     1.2080    -1.6990 hc         1 9CF       0.041200
     25 H4           6.2670     1.7620    -0.3310 hc         1 9CF       0.041200
     26 H5           6.3130    -0.7720    -0.6230 hc         1 9CF       0.050200
     27 H6           5.7270    -0.2770     0.9650 hc         1 9CF       0.050200
     28 H7           3.9660    -1.1060    -1.4330 h1         1 9CF       0.025700
     29 H8           4.3430    -2.4360     1.3280 hc         1 9CF       0.045700
     30 H9           3.2250    -2.9720     0.0590 hc         1 9CF       0.045700
     31 H10          4.9720    -3.0620    -0.2060 hc         1 9CF       0.045700
     32 H11          2.6670     0.9330    -1.3420 h1         1 9CF       0.024700
     33 H12          1.6910     1.5660     1.5080 hc         1 9CF       0.062200
     34 H13          1.5260     2.6620     0.1600 hc         1 9CF       0.062200
     35 H14          0.1860     0.8580    -1.0820 h1         1 9CF       0.057700
     36 H15         -0.9260     1.9530     1.5620 hc         1 9CF       0.071700
     37 H16         -1.0000     2.7330    -0.0200 hc         1 9CF       0.071700
     38 H17         -3.4740     2.7680    -0.1240 ha         1 9CF       0.134000
     39 H18         -6.4810     0.9820    -0.8410 ho         1 9CF       0.475000
     40 H19         -5.5260    -0.9880    -0.5810 ha         1 9CF       0.135000
     41 H20         -2.5880    -2.7630     0.2820 ho         1 9CF       0.521000
@<TRIPOS>BOND
     1     1     2 1   
     2     1     7 1   
     3     1    22 1   
     4     1    23 1   
     5     2     3 1   
     6     2    24 1   
     7     2    25 1   
     8     3     4 1   
     9     3    26 1   
    10     3    27 1   
    11     4     5 1   
    12     4     6 1   
    13     4    28 1   
    14     5    29 1   
    15     5    30 1   
    16     5    31 1   
    17     6     7 1   
    18     7     8 1   
    19     7    32 1   
    20     8     9 1   
    21     8    33 1   
    22     8    34 1   
    23     9    10 1   
    24     9    11 1   
    25     9    35 1   
    26    10    15 1   
    27    10    36 1   
    28    10    37 1   
    29    11    12 1   
    30    12    13 2   
    31    12    14 1   
    32    14    15 ar  
    33    14    20 ar  
    34    15    16 ar  
    35    16    17 ar  
    36    16    38 1   
    37    17    18 1   
    38    17    19 ar  
    39    18    39 1   
    40    19    20 ar  
    41    19    40 1   
    42    20    21 1   
    43    21    41 1   
@<TRIPOS>SUBSTRUCTURE
     1 9CF         1 TEMP              0 ****  ****    0 ROOT
