@<TRIPOS>MOLECULE
9CG
   22    24     1     0     0
SMALL
bcc


@<TRIPOS>ATOM
      1 C10          1.4410     2.1630     0.0190 ca         1 9CG      -0.084000
      2 C11          0.2100     2.7660     0.0270 ca         1 9CG      -0.143000
      3 C02         -2.1120    -0.1850    -0.1780 c          1 9CG       0.761200
      4 C04         -0.8190    -2.1910     0.2390 c6         1 9CG       0.208700
      5 C05          0.4520    -1.4250     0.0590 ca         1 9CG      -0.124300
      6 C06          1.6750    -2.0410     0.0330 ca         1 9CG      -0.098000
      7 C07          2.8580    -1.2760    -0.0020 ca         1 9CG      -0.127000
      8 C08          2.8050     0.0920    -0.0020 ca         1 9CG      -0.101000
      9 C09          1.5570     0.7550     0.0090 ca         1 9CG      -0.045000
     10 C12         -0.9640     1.9940    -0.0050 ca         1 9CG      -0.044000
     11 C13         -0.8870     0.6220    -0.0150 ca         1 9CG      -0.185600
     12 C14          0.3740    -0.0200     0.0190 ca         1 9CG       0.000000
     13 O01         -3.2100     0.2910    -0.3330 o          1 9CG      -0.574500
     14 O03         -1.9830    -1.5090    -0.2310 os         1 9CG      -0.418900
     15 H1           2.3400     2.7660     0.0220 ha         1 9CG       0.136000
     16 H2           0.1340     3.8450     0.0390 ha         1 9CG       0.140000
     17 H3          -0.7900    -3.1400    -0.2940 h1         1 9CG       0.067200
     18 H4          -0.9670    -2.4130     1.3000 h1         1 9CG       0.067200
     19 H5           1.7420    -3.1210     0.0570 ha         1 9CG       0.135000
     20 H6           3.8150    -1.7810    -0.0210 ha         1 9CG       0.137000
     21 H7           3.7150     0.6790    -0.0130 ha         1 9CG       0.137000
     22 H8          -1.9260     2.4860    -0.0410 ha         1 9CG       0.157000
@<TRIPOS>BOND
     1     1     2 ar  
     2     1     9 ar  
     3     1    15 1   
     4     2    10 ar  
     5     2    16 1   
     6     3    11 1   
     7     3    13 2   
     8     3    14 1   
     9     4     5 1   
    10     4    14 1   
    11     4    17 1   
    12     4    18 1   
    13     5     6 ar  
    14     5    12 ar  
    15     6     7 ar  
    16     6    19 1   
    17     7     8 ar  
    18     7    20 1   
    19     8     9 ar  
    20     8    21 1   
    21     9    12 ar  
    22    10    11 ar  
    23    10    22 1   
    24    11    12 ar  
@<TRIPOS>SUBSTRUCTURE
     1 9CG         1 TEMP              0 ****  ****    0 ROOT
