@<TRIPOS>MOLECULE
9CG
   22    24     1     0     0
SMALL
No Charge or Current Charge


@<TRIPOS>ATOM
      1 C10          1.4690     2.1610     0.0110 ca         1 9CG      -0.066000
      2 C11          0.2160     2.7930     0.0210 ca         1 9CG      -0.125000
      3 C02         -2.1650    -0.1970    -0.1360 c          1 9CG       0.685700
      4 C04         -0.8360    -2.2400     0.2200 c6         1 9CG       0.231900
      5 C05          0.4350    -1.4140     0.0530 ca         1 9CG      -0.124300
      6 C06          1.6910    -2.0500     0.0430 ca         1 9CG      -0.080000
      7 C07          2.8700    -1.2860     0.0020 ca         1 9CG      -0.109000
      8 C08          2.7990     0.1160    -0.0070 ca         1 9CG      -0.083000
      9 C09          1.5460     0.7570     0.0060 ca         1 9CG      -0.045000
     10 C12         -0.9630     2.0270     0.0040 ca         1 9CG      -0.026000
     11 C13         -0.8990     0.6160    -0.0050 ca         1 9CG      -0.185600
     12 C14          0.3610    -0.0130     0.0170 ca         1 9CG       0.000000
     13 O01         -3.2550     0.3250    -0.3280 o          1 9CG      -0.499000
     14 O03         -2.0000    -1.5510    -0.2770 os         1 9CG      -0.442100
     15 H1           2.3760     2.7620     0.0100 ha         1 9CG       0.118000
     16 H2           0.1560     3.8790     0.0240 ha         1 9CG       0.122000
     17 H3          -0.7430    -3.2040    -0.2990 h1         1 9CG       0.067200
     18 H4          -0.9830    -2.4460     1.2900 h1         1 9CG       0.067200
     19 H5           1.7560    -3.1360     0.0840 ha         1 9CG       0.117000
     20 H6           3.8380    -1.7810    -0.0040 ha         1 9CG       0.119000
     21 H7           3.7150     0.7020    -0.0230 ha         1 9CG       0.119000
     22 H8          -1.9250     2.5360    -0.0180 ha         1 9CG       0.139000
@<TRIPOS>BOND
     1     1     2 ar  
     2     1     9 ar  
     3     1    15 1   
     4     2    10 ar  
     5     2    16 1   
     6     3    11 1   
     7     3    13 2   
     8     3    14 1   
     9     4     5 1   
    10     4    14 1   
    11     4    17 1   
    12     4    18 1   
    13     5     6 ar  
    14     5    12 ar  
    15     6     7 ar  
    16     6    19 1   
    17     7     8 ar  
    18     7    20 1   
    19     8     9 ar  
    20     8    21 1   
    21     9    12 ar  
    22    10    11 ar  
    23    10    22 1   
    24    11    12 ar  
@<TRIPOS>SUBSTRUCTURE
     1 9CG         1 TEMP              0 ****  ****    0 ROOT
