@<TRIPOS>MOLECULE
9CH
   53    57     1     0     0
SMALL
No Charge or Current Charge


@<TRIPOS>ATOM
      1 C14          2.6420     1.2660    -0.0540 ca         1 9CH      -0.138500
      2 C10         -0.4150     1.5250     1.6570 cc         1 9CH       0.388300
      3 C13          1.4880     1.6570     0.7660 cc         1 9CH       0.487500
      4 N02         -2.9190    -2.9230    -0.7250 n          1 9CH      -0.360300
      5 C03         -2.0670    -3.8800    -0.1540 c          1 9CH       0.627000
      6 N04         -1.2460    -3.4870     0.9160 n          1 9CH      -0.374400
      7 C05         -0.3530    -4.5120     1.5250 c3         1 9CH       0.084300
      8 C06         -1.2000    -2.1840     1.4230 c          1 9CH       0.632600
      9 C07         -2.0990    -1.2450     0.7550 cc         1 9CH      -0.351600
     10 N08         -2.3520     0.1040     0.9420 na         1 9CH      -0.143500
     11 C09         -1.7740     0.9730     1.9910 c3         1 9CH       0.060300
     12 N11          0.1030     2.6690     2.0730 nd         1 9CH      -0.351000
     13 N12          1.3450     2.7550     1.4930 nd         1 9CH      -0.357000
     14 C15          3.7730     2.1080    -0.1480 ca         1 9CH      -0.053000
     15 C16          4.8790     1.7320    -0.9310 ca         1 9CH      -0.107000
     16 C17          4.8720     0.5130    -1.6270 ca         1 9CH       0.138000
     17 Cl1          6.2770     0.0730    -2.6000 cl         1 9CH      -0.158000
     18 C19          3.7510    -0.3360    -1.5400 ca         1 9CH       0.105000
     19 Cl2          3.7060    -1.8760    -2.4000 cl         1 9CH      -0.159000
     20 C21          2.6450     0.0390    -0.7580 ca         1 9CH      -0.057000
     21 O22          0.4080     0.8410     0.8220 os         1 9CH      -0.246000
     22 C23         -3.2940     0.4590    -0.0070 cc         1 9CH       0.697400
     23 N24         -3.8350     1.7100    -0.1830 nh         1 9CH      -0.760300
     24 C25         -5.2320     1.8580    -0.6930 c6         1 9CH       0.161800
     25 C26         -5.8470     3.2470    -0.3230 c6         1 9CH       0.146300
     26 N27         -4.9800     4.3900    -0.7380 n7         1 9CH      -0.844400
     27 C28         -3.5980     4.2340    -0.1950 c6         1 9CH       0.146300
     28 C29         -2.9600     2.8590    -0.5720 c6         1 9CH       0.161800
     29 N30         -3.6570    -0.5770    -0.7280 nd         1 9CH      -0.742000
     30 C31         -2.9070    -1.6300    -0.2660 cd         1 9CH       0.459900
     31 O33         -2.0430    -5.0270    -0.5810 o          1 9CH      -0.553000
     32 H1          -3.1970    -3.4860    -2.7510 h1         1 9CH       0.059367
     33 H2          -4.3200    -4.2630    -1.5980 h1         1 9CH       0.059367
     34 H3          -4.5580    -2.5640    -2.0570 h1         1 9CH       0.059367
     35 H4          -0.8520    -5.4890     1.5550 h1         1 9CH       0.058700
     36 H5           0.5650    -4.5980     0.9310 h1         1 9CH       0.058700
     37 H6          -0.0870    -4.2480     2.5560 h1         1 9CH       0.058700
     38 H7          -1.6990     0.4020     2.9230 h1         1 9CH       0.109700
     39 H8          -2.4580     1.8090     2.1790 h1         1 9CH       0.109700
     40 H9           3.8000     3.0580     0.3850 ha         1 9CH       0.145000
     41 H10          5.7440     2.3880    -0.9970 ha         1 9CH       0.139000
     42 H11          1.7910    -0.6330    -0.7050 ha         1 9CH       0.156000
     43 H12         -5.2430     1.7420    -1.7870 h1         1 9CH       0.054200
     44 H13         -5.8770     1.0690    -0.2800 h1         1 9CH       0.054200
     45 H14         -6.8390     3.3410    -0.7890 h1         1 9CH       0.065700
     46 H15         -5.9970     3.2820     0.7670 h1         1 9CH       0.065700
     47 H16         -4.9200     4.3850    -1.7640 hn         1 9CH       0.407000
     48 H18         -2.9570     5.0470    -0.5680 h1         1 9CH       0.065700
     49 H19         -3.6260     4.3200     0.9020 h1         1 9CH       0.065700
     50 H20         -1.9720     2.7870    -0.0980 h1         1 9CH       0.054200
     51 H21         -2.7870     2.8350    -1.6580 h1         1 9CH       0.054200
     52 O32         -0.4660    -1.8530     2.3430 o          1 9CH      -0.540000
     53 C01         -3.8010    -3.3290    -1.8480 c3         1 9CH       0.100300
@<TRIPOS>BOND
     1     1     3 1   
     2     1    14 ar  
     3     1    20 ar  
     4     2    11 1   
     5     2    12 2   
     6     2    21 1   
     7     3    13 2   
     8     3    21 1   
     9     4     5 1   
    10     4    30 1   
    11     4    53 1   
    12     5     6 1   
    13     5    31 2   
    14     6     7 1   
    15     6     8 1   
    16     7    35 1   
    17     7    36 1   
    18     7    37 1   
    19     8     9 1   
    20     8    52 2   
    21     9    10 1   
    22     9    30 2   
    23    10    11 1   
    24    10    22 1   
    25    11    38 1   
    26    11    39 1   
    27    12    13 1   
    28    14    15 ar  
    29    14    40 1   
    30    15    16 ar  
    31    15    41 1   
    32    16    17 1   
    33    16    18 ar  
    34    18    19 1   
    35    18    20 ar  
    36    20    42 1   
    37    22    23 1   
    38    22    29 2   
    39    23    24 1   
    40    23    28 1   
    41    24    25 1   
    42    24    43 1   
    43    24    44 1   
    44    25    26 1   
    45    25    45 1   
    46    25    46 1   
    47    26    27 1   
    48    26    47 1   
    49    27    28 1   
    50    27    48 1   
    51    27    49 1   
    52    28    50 1   
    53    28    51 1   
    54    29    30 1   
    55    32    53 1   
    56    33    53 1   
    57    34    53 1   
@<TRIPOS>SUBSTRUCTURE
     1 9CH         1 TEMP              0 ****  ****    0 ROOT
