@<TRIPOS>MOLECULE
9CH
   53    57     1     0     0
SMALL
abcg2


@<TRIPOS>ATOM
      1 C14          2.7890     1.1520    -0.0290 ca         1 9CH      -0.138500
      2 C10         -0.4080     1.6820     1.2550 cc         1 9CH       0.388300
      3 C13          1.5520     1.7040     0.4910 cc         1 9CH       0.487500
      4 N02         -2.9770    -2.7970    -0.8620 n          1 9CH      -0.360300
      5 C03         -2.0370    -3.7090    -0.4440 c          1 9CH       0.627000
      6 N04         -1.1010    -3.2630     0.4850 n          1 9CH      -0.374400
      7 C05         -0.0900    -4.2090     0.9440 c3         1 9CH       0.084300
      8 C06         -1.0100    -1.9770     1.0340 c          1 9CH       0.632600
      9 C07         -1.9990    -1.1040     0.5130 cc         1 9CH      -0.351600
     10 N08         -2.2960     0.2300     0.7410 na         1 9CH      -0.143500
     11 C09         -1.6900     1.0940     1.7250 c3         1 9CH       0.060300
     12 N11         -0.0390     2.9130     1.2280 nd         1 9CH      -0.351000
     13 N12          1.2380     2.9300     0.7370 nd         1 9CH      -0.357000
     14 C15          3.7900     2.0010    -0.4970 ca         1 9CH      -0.053000
     15 C16          4.9690     1.4720    -0.9870 ca         1 9CH      -0.107000
     16 C17          5.1590     0.0970    -1.0160 ca         1 9CH       0.138000
     17 CL1          6.6280    -0.5410    -1.6330 cl         1 9CH      -0.158000
     18 C19          4.1620    -0.7510    -0.5450 ca         1 9CH       0.105000
     19 CL2          4.3750    -2.4570    -0.5630 cl         1 9CH      -0.159000
     20 C21          2.9800    -0.2260    -0.0510 ca         1 9CH      -0.057000
     21 O22          0.5510     0.8710     0.7970 os         1 9CH      -0.246000
     22 C23         -3.3770     0.5130    -0.0300 cc         1 9CH       0.697400
     23 N24         -3.9790     1.7380    -0.0170 nh         1 9CH      -0.760300
     24 C25         -5.3950     1.7610    -0.3680 c6         1 9CH       0.161800
     25 C26         -5.9940     3.0750     0.1170 c6         1 9CH       0.146300
     26 N27         -5.3020     4.2550    -0.3720 n7         1 9CH      -0.844400
     27 C28         -3.8760     4.1690    -0.1150 c6         1 9CH       0.146300
     28 C29         -3.2540     2.8700    -0.6020 c6         1 9CH       0.161800
     29 N30         -3.7930    -0.5400    -0.7170 nd         1 9CH      -0.742000
     30 C31         -2.9450    -1.5240    -0.3790 cd         1 9CH       0.459900
     31 O33         -2.0260    -4.8510    -0.8640 o          1 9CH      -0.553000
     32 H1          -3.7990    -4.1570    -2.2050 h1         1 9CH       0.059367
     33 H2          -4.9860    -3.1760    -1.3350 h1         1 9CH       0.059367
     34 H3          -4.0260    -2.4590    -2.6390 h1         1 9CH       0.059367
     35 H4          -0.2970    -5.1870     0.5290 h1         1 9CH       0.058700
     36 H5           0.9010    -3.8930     0.6220 h1         1 9CH       0.058700
     37 H6          -0.1020    -4.2780     2.0290 h1         1 9CH       0.058700
     38 H7          -1.5180     0.5260     2.6400 h1         1 9CH       0.109700
     39 H8          -2.3840     1.8990     1.9640 h1         1 9CH       0.109700
     40 H9           3.6500     3.0730    -0.4840 ha         1 9CH       0.145000
     41 H10          5.7460     2.1280    -1.3530 ha         1 9CH       0.139000
     42 H11          2.2220    -0.9010     0.3250 ha         1 9CH       0.156000
     43 H12         -5.5350     1.6570    -1.4530 h1         1 9CH       0.054200
     44 H13         -5.8990     0.9230     0.1130 h1         1 9CH       0.054200
     45 H14         -7.0430     3.1250    -0.1800 h1         1 9CH       0.065700
     46 H15         -5.9670     3.0890     1.2100 h1         1 9CH       0.065700
     47 H16         -5.4570     4.3460    -1.3700 hn         1 9CH       0.407000
     48 H18         -3.3720     5.0110    -0.5910 h1         1 9CH       0.065700
     49 H19         -3.7100     4.2600     0.9640 h1         1 9CH       0.065700
     50 H20         -2.2010     2.8340    -0.3290 h1         1 9CH       0.054200
     51 H21         -3.3070     2.8190    -1.6990 h1         1 9CH       0.054200
     52 O32         -0.1560    -1.7100     1.8630 o          1 9CH      -0.540000
     53 C01         -4.0090    -3.1690    -1.8160 c3         1 9CH       0.100300
@<TRIPOS>BOND
     1     1     3 1   
     2     1    14 ar  
     3     1    20 ar  
     4     2    11 1   
     5     2    12 2   
     6     2    21 1   
     7     3    13 2   
     8     3    21 1   
     9     4     5 1   
    10     4    30 1   
    11     4    53 1   
    12     5     6 1   
    13     5    31 2   
    14     6     7 1   
    15     6     8 1   
    16     7    35 1   
    17     7    36 1   
    18     7    37 1   
    19     8     9 1   
    20     8    52 2   
    21     9    10 1   
    22     9    30 2   
    23    10    11 1   
    24    10    22 1   
    25    11    38 1   
    26    11    39 1   
    27    12    13 1   
    28    14    15 ar  
    29    14    40 1   
    30    15    16 ar  
    31    15    41 1   
    32    16    17 1   
    33    16    18 ar  
    34    18    19 1   
    35    18    20 ar  
    36    20    42 1   
    37    22    23 1   
    38    22    29 2   
    39    23    24 1   
    40    23    28 1   
    41    24    25 1   
    42    24    43 1   
    43    24    44 1   
    44    25    26 1   
    45    25    45 1   
    46    25    46 1   
    47    26    27 1   
    48    26    47 1   
    49    27    28 1   
    50    27    48 1   
    51    27    49 1   
    52    28    50 1   
    53    28    51 1   
    54    29    30 1   
    55    32    53 1   
    56    33    53 1   
    57    34    53 1   
@<TRIPOS>SUBSTRUCTURE
     1 9CH         1 TEMP              0 ****  ****    0 ROOT
