@<TRIPOS>MOLECULE
9CI
   63    65     1     0     0
SMALL
bcc


@<TRIPOS>ATOM
      1 C02         20.2410    43.8430    39.4170 c3         1 9CI       0.125100
      2 C03         21.1020    43.8560    40.6750 c3         1 9CI       0.133800
      3 C05         21.1320    44.0930    43.0870 c3         1 9CI       0.167800
      4 C06         22.0760    42.9530    43.4510 c6         1 9CI      -0.058700
      5 C07         22.7850    43.2410    44.7710 c6         1 9CI      -0.068400
      6 C08         23.9010    42.2220    45.0350 c6         1 9CI      -0.071900
      7 C09         23.5520    40.8310    44.4820 c6         1 9CI      -0.074400
      8 C10         22.0440    40.6160    44.4800 c6         1 9CI      -0.071900
      9 C11         21.3520    41.5980    43.5260 c6         1 9CI      -0.068400
     10 C12         19.3720    42.6020    39.2290 c3         1 9CI       0.121000
     11 C14         17.8330    41.5730    40.8640 c          1 9CI       0.678100
     12 C16         16.4440    41.7060    41.4620 c3         1 9CI      -0.151400
     13 C17         16.2900    40.9690    42.7900 c3         1 9CI       0.042900
     14 C18         17.1440    41.5190    43.9140 ca         1 9CI      -0.069300
     15 C19         17.6510    40.6380    44.8680 ca         1 9CI      -0.117750
     16 C20         18.3680    41.0990    45.9620 ca         1 9CI      -0.129250
     17 C21         18.5910    42.4610    46.1230 ca         1 9CI      -0.128500
     18 C22         18.0970    43.3480    45.1770 ca         1 9CI      -0.129250
     19 C23         17.3860    42.8800    44.0790 ca         1 9CI      -0.117750
     20 C24         14.8380    40.9290    43.2260 ca         1 9CI      -0.069300
     21 C25         14.2030    39.7080    43.4270 ca         1 9CI      -0.117750
     22 C26         12.8770    39.6510    43.8420 ca         1 9CI      -0.129250
     23 C27         12.1660    40.8210    44.0620 ca         1 9CI      -0.128500
     24 C28         12.7900    42.0470    43.8620 ca         1 9CI      -0.129250
     25 C29         14.1130    42.0990    43.4490 ca         1 9CI      -0.117750
     26 N04         20.3390    43.8350    41.9020 n7         1 9CI      -0.795200
     27 N13         18.1790    42.5740    40.0400 ns         1 9CI      -0.558900
     28 O01         19.3860    44.9650    39.3350 oh         1 9CI      -0.608800
     29 O15         18.5380    40.5980    41.0840 o          1 9CI      -0.606100
     30 H1          20.9480    43.8340    38.5740 h1         1 9CI       0.031700
     31 H2          21.7550    42.9800    40.6320 h1         1 9CI       0.032200
     32 H3          21.7710    44.7340    40.6120 h1         1 9CI       0.032200
     33 H4          21.7240    45.0210    42.9990 h1         1 9CI       0.025700
     34 H5          20.4380    44.2420    43.9190 h1         1 9CI       0.025700
     35 H6          22.8540    42.8850    42.6790 hc         1 9CI       0.038700
     36 H7          23.1970    44.2550    44.7720 hc         1 9CI       0.045200
     37 H8          22.0480    43.2140    45.5810 hc         1 9CI       0.045200
     38 H9          24.8340    42.5690    44.5850 hc         1 9CI       0.035200
     39 H10         24.0860    42.1590    46.1110 hc         1 9CI       0.035200
     40 H11         24.0560    40.0560    45.0650 hc         1 9CI       0.035200
     41 H12         23.9250    40.7290    43.4580 hc         1 9CI       0.035200
     42 H13         21.6630    40.7510    45.4980 hc         1 9CI       0.035200
     43 H14         21.7990    39.5880    44.2020 hc         1 9CI       0.035200
     44 H15         20.3170    41.7500    43.8470 hc         1 9CI       0.045200
     45 H16         21.2950    41.1650    42.5250 hc         1 9CI       0.045200
     46 H17         19.0810    42.5460    38.1750 h1         1 9CI       0.059200
     47 H18         19.9650    41.7150    39.4400 h1         1 9CI       0.059200
     48 H19         16.1560    42.7560    41.5460 hc         1 9CI       0.058200
     49 H20         15.7450    41.2680    40.7430 hc         1 9CI       0.058200
     50 H21         16.6030    39.9360    42.6250 hc         1 9CI       0.078700
     51 H22         17.4740    39.5740    44.7530 ha         1 9CI       0.127500
     52 H23         18.7540    40.3950    46.6880 ha         1 9CI       0.127500
     53 H24         19.1480    42.8270    46.9760 ha         1 9CI       0.128000
     54 H25         18.2680    44.4110    45.2890 ha         1 9CI       0.127500
     55 H26         17.0190    43.5970    43.3540 ha         1 9CI       0.127500
     56 H27         14.7500    38.7880    43.2580 ha         1 9CI       0.127500
     57 H28         12.4030    38.6900    43.9940 ha         1 9CI       0.127500
     58 H29         11.1340    40.7810    44.3850 ha         1 9CI       0.128000
     59 H30         12.2440    42.9670    44.0300 ha         1 9CI       0.127500
     60 H31         14.5820    43.0650    43.3060 ha         1 9CI       0.127500
     61 H32         19.6020    44.5260    41.8430 hn         1 9CI       0.359800
     62 H34         17.5300    43.3350    39.9220 hn         1 9CI       0.317500
     63 H35         19.9220    45.7640    39.3440 ho         1 9CI       0.405000
@<TRIPOS>BOND
     1     1     2 1   
     2     1    10 1   
     3     1    28 1   
     4     1    30 1   
     5     2    26 1   
     6     2    31 1   
     7     2    32 1   
     8     3     4 1   
     9     3    26 1   
    10     3    33 1   
    11     3    34 1   
    12     4     5 1   
    13     4     9 1   
    14     4    35 1   
    15     5     6 1   
    16     5    36 1   
    17     5    37 1   
    18     6     7 1   
    19     6    38 1   
    20     6    39 1   
    21     7     8 1   
    22     7    40 1   
    23     7    41 1   
    24     8     9 1   
    25     8    42 1   
    26     8    43 1   
    27     9    44 1   
    28     9    45 1   
    29    10    27 1   
    30    10    46 1   
    31    10    47 1   
    32    11    12 1   
    33    11    27 1   
    34    11    29 2   
    35    12    13 1   
    36    12    48 1   
    37    12    49 1   
    38    13    14 1   
    39    13    20 1   
    40    13    50 1   
    41    14    15 ar  
    42    14    19 ar  
    43    15    16 ar  
    44    15    51 1   
    45    16    17 ar  
    46    16    52 1   
    47    17    18 ar  
    48    17    53 1   
    49    18    19 ar  
    50    18    54 1   
    51    19    55 1   
    52    20    21 ar  
    53    20    25 ar  
    54    21    22 ar  
    55    21    56 1   
    56    22    23 ar  
    57    22    57 1   
    58    23    24 ar  
    59    23    58 1   
    60    24    25 ar  
    61    24    59 1   
    62    25    60 1   
    63    26    61 1   
    64    27    62 1   
    65    28    63 1   
@<TRIPOS>SUBSTRUCTURE
     1 9CI         1 TEMP              0 ****  ****    0 ROOT
