@<TRIPOS>MOLECULE
9CI
   63    65     1     0     0
SMALL
No Charge or Current Charge


@<TRIPOS>ATOM
      1 C02         20.2900    43.8560    39.4710 c3         1 9CI       0.148300
      2 C03         21.2310    44.1300    40.6840 c3         1 9CI       0.133800
      3 C05         21.2720    44.3270    43.2020 c3         1 9CI       0.167800
      4 C06         22.1250    43.0550    43.5110 c6         1 9CI      -0.058700
      5 C07         22.7750    43.1390    44.9180 c6         1 9CI      -0.068400
      6 C08         23.7700    41.9680    45.1720 c6         1 9CI      -0.071900
      7 C09         23.4030    40.6690    44.4000 c6         1 9CI      -0.074400
      8 C10         21.8760    40.5450    44.1960 c6         1 9CI      -0.071900
      9 C11         21.3130    41.7250    43.3550 c6         1 9CI      -0.068400
     10 C12         19.6050    42.4580    39.5500 c3         1 9CI       0.121000
     11 C14         17.6310    41.3250    40.6250 c          1 9CI       0.611100
     12 C16         16.2960    41.5760    41.3330 c3         1 9CI      -0.151400
     13 C17         16.2250    40.9230    42.7440 c3         1 9CI       0.042900
     14 C18         17.1260    41.5630    43.8100 ca         1 9CI      -0.069300
     15 C19         17.7580    40.7300    44.7580 ca         1 9CI      -0.099750
     16 C20         18.5410    41.2790    45.7880 ca         1 9CI      -0.111250
     17 C21         18.7040    42.6700    45.8830 ca         1 9CI      -0.110500
     18 C22         18.0760    43.5100    44.9490 ca         1 9CI      -0.111250
     19 C23         17.2900    42.9620    43.9200 ca         1 9CI      -0.099750
     20 C24         14.7850    40.8610    43.2630 ca         1 9CI      -0.069300
     21 C25         14.2500    39.6350    43.7120 ca         1 9CI      -0.099750
     22 C26         12.9330    39.5660    44.1970 ca         1 9CI      -0.111250
     23 C27         12.1380    40.7230    44.2430 ca         1 9CI      -0.110500
     24 C28         12.6620    41.9490    43.8050 ca         1 9CI      -0.111250
     25 C29         13.9800    42.0190    43.3190 ca         1 9CI      -0.099750
     26 N04         20.4820    44.2390    41.9570 n7         1 9CI      -0.850400
     27 N13         18.3680    42.4480    40.3400 ns         1 9CI      -0.491900
     28 O01         19.3010    44.9050    39.3490 oh         1 9CI      -0.671000
     29 O15         17.9890    40.2100    40.2720 o          1 9CI      -0.606100
     30 H1          20.9260    43.8480    38.5760 h1         1 9CI       0.031700
     31 H2          21.9610    43.3110    40.7320 h1         1 9CI       0.032200
     32 H3          21.7960    45.0530    40.4970 h1         1 9CI       0.032200
     33 H4          21.9400    45.1990    43.1680 h1         1 9CI       0.025700
     34 H5          20.5860    44.4810    44.0460 h1         1 9CI       0.025700
     35 H6          22.9410    43.0470    42.7760 hc         1 9CI       0.038700
     36 H7          23.2970    44.0970    45.0440 hc         1 9CI       0.045200
     37 H8          21.9840    43.1190    45.6820 hc         1 9CI       0.045200
     38 H9          24.7850    42.2760    44.8860 hc         1 9CI       0.035200
     39 H10         23.8080    41.7620    46.2500 hc         1 9CI       0.035200
     40 H11         23.7870    39.7930    44.9400 hc         1 9CI       0.035200
     41 H12         23.8990    40.6680    43.4200 hc         1 9CI       0.035200
     42 H13         21.3830    40.5240    45.1780 hc         1 9CI       0.035200
     43 H14         21.6320    39.5910    43.7100 hc         1 9CI       0.035200
     44 H15         20.2620    41.8860    43.6270 hc         1 9CI       0.045200
     45 H16         21.3010    41.4400    42.2950 hc         1 9CI       0.045200
     46 H17         19.3580    42.1330    38.5310 h1         1 9CI       0.059200
     47 H18         20.3080    41.7260    39.9700 h1         1 9CI       0.059200
     48 H19         16.0890    42.6490    41.3880 hc         1 9CI       0.058200
     49 H20         15.5170    41.1090    40.7180 hc         1 9CI       0.058200
     50 H21         16.5660    39.8900    42.6010 hc         1 9CI       0.078700
     51 H22         17.6320    39.6510    44.7060 ha         1 9CI       0.109500
     52 H23         19.0220    40.6250    46.5120 ha         1 9CI       0.109500
     53 H24         19.3120    43.0950    46.6780 ha         1 9CI       0.110000
     54 H25         18.1950    44.5880    45.0250 ha         1 9CI       0.109500
     55 H26         16.8000    43.6390    43.2270 ha         1 9CI       0.109500
     56 H27         14.8550    38.7310    43.6860 ha         1 9CI       0.109500
     57 H28         12.5290    38.6150    44.5390 ha         1 9CI       0.109500
     58 H29         11.1180    40.6690    44.6190 ha         1 9CI       0.110000
     59 H30         12.0490    42.8470    43.8430 ha         1 9CI       0.109500
     60 H31         14.3720    42.9780    42.9920 ha         1 9CI       0.109500
     61 H32         19.8690    45.0590    41.8920 hn         1 9CI       0.415000
     62 H34         18.0160    43.3390    40.6650 hn         1 9CI       0.317500
     63 H35         19.7900    45.7440    39.2040 ho         1 9CI       0.444000
@<TRIPOS>BOND
     1     1     2 1   
     2     1    10 1   
     3     1    28 1   
     4     1    30 1   
     5     2    26 1   
     6     2    31 1   
     7     2    32 1   
     8     3     4 1   
     9     3    26 1   
    10     3    33 1   
    11     3    34 1   
    12     4     5 1   
    13     4     9 1   
    14     4    35 1   
    15     5     6 1   
    16     5    36 1   
    17     5    37 1   
    18     6     7 1   
    19     6    38 1   
    20     6    39 1   
    21     7     8 1   
    22     7    40 1   
    23     7    41 1   
    24     8     9 1   
    25     8    42 1   
    26     8    43 1   
    27     9    44 1   
    28     9    45 1   
    29    10    27 1   
    30    10    46 1   
    31    10    47 1   
    32    11    12 1   
    33    11    27 1   
    34    11    29 2   
    35    12    13 1   
    36    12    48 1   
    37    12    49 1   
    38    13    14 1   
    39    13    20 1   
    40    13    50 1   
    41    14    15 ar  
    42    14    19 ar  
    43    15    16 ar  
    44    15    51 1   
    45    16    17 ar  
    46    16    52 1   
    47    17    18 ar  
    48    17    53 1   
    49    18    19 ar  
    50    18    54 1   
    51    19    55 1   
    52    20    21 ar  
    53    20    25 ar  
    54    21    22 ar  
    55    21    56 1   
    56    22    23 ar  
    57    22    57 1   
    58    23    24 ar  
    59    23    58 1   
    60    24    25 ar  
    61    24    59 1   
    62    25    60 1   
    63    26    61 1   
    64    27    62 1   
    65    28    63 1   
@<TRIPOS>SUBSTRUCTURE
     1 9CI         1 TEMP              0 ****  ****    0 ROOT
