@<TRIPOS>MOLECULE
9CJ
   45    47     1     0     0
SMALL
No Charge or Current Charge


@<TRIPOS>ATOM
      1 O4           1.2130     0.1190    -1.5850 o          1 9CJ      -0.555100
      2 C7           1.7040    -0.9880    -1.3960 c          1 9CJ       0.598100
      3 C6           3.1580    -1.2940    -1.7750 c3         1 9CJ      -0.117100
      4 C5           4.1120    -0.7270    -0.7300 ca         1 9CJ      -0.037300
      5 C4           4.4750    -1.4980     0.3900 ca         1 9CJ      -0.143000
      6 C3           5.3490    -0.9750     1.3570 ca         1 9CJ      -0.078000
      7 C2           5.8670     0.3230     1.2120 ca         1 9CJ      -0.198000
      8 C20          4.6320     0.5740    -0.8700 ca         1 9CJ      -0.112000
      9 C1           5.5070     1.1040     0.0930 ca         1 9CJ       0.141100
     10 O            5.9830     2.3850    -0.1030 os         1 9CJ      -0.336100
     11 C            6.8820     3.0190     0.8240 c3         1 9CJ       0.150900
     12 N            1.0250    -2.0630    -0.8300 ns         1 9CJ      -0.143000
     13 C8          -0.2980    -2.2070    -0.3220 ca         1 9CJ      -0.092000
     14 C13         -1.2040    -1.1310    -0.1800 ca         1 9CJ      -0.069000
     15 C12         -2.5200    -1.3190     0.3340 cp         1 9CJ      -0.203500
     16 C11         -2.8780    -2.6380     0.7280 ca         1 9CJ       0.173100
     17 O3          -4.1030    -2.8860     1.2540 oh         1 9CJ      -0.584100
     18 C10         -1.9820    -3.7070     0.5910 ca         1 9CJ      -0.162000
     19 C9          -0.7000    -3.4950     0.0680 ca         1 9CJ      -0.127000
     20 C14         -3.4770    -0.1540     0.4500 cp         1 9CJ       0.375500
     21 N1          -4.4870    -0.2790     1.3500 nb         1 9CJ      -0.765000
     22 C18         -5.3670     0.7370     1.4970 ca         1 9CJ       0.314900
     23 C17         -5.3030     1.9180     0.7450 ca         1 9CJ      -0.130000
     24 C16         -4.2850     2.0750    -0.2200 ca         1 9CJ      -0.101600
     25 C15         -3.3670     1.0080    -0.3580 ca         1 9CJ      -0.115000
     26 C19         -4.1840     3.3280    -1.0730 c          1 9CJ       0.713600
     27 O2          -3.2820     3.4020    -1.8960 o          1 9CJ      -0.705000
     28 O1          -5.0090     4.2150    -0.9060 o          1 9CJ      -0.705000
     29 H61C         3.3050    -2.3790    -1.8400 hc         1 9CJ       0.060700
     30 H62C         3.3700    -0.8420    -2.7510 hc         1 9CJ       0.060700
     31 H            1.5790    -2.9070    -0.7600 hn         1 9CJ       0.137000
     32 H4           4.0800    -2.5040     0.5150 ha         1 9CJ       0.108000
     33 H20          4.3560     1.1810    -1.7280 ha         1 9CJ       0.138000
     34 H3           5.6260    -1.5780     2.2200 ha         1 9CJ       0.105000
     35 H2           6.5410     0.7030     1.9750 ha         1 9CJ       0.111000
     36 HC1          7.1330     4.0300     0.4790 h1         1 9CJ       0.036700
     37 HC2          6.4220     3.1030     1.8170 h1         1 9CJ       0.036700
     38 HC3          7.8150     2.4490     0.9140 h1         1 9CJ       0.036700
     39 H13         -0.8870    -0.1290    -0.4460 ha         1 9CJ       0.157000
     40 H9          -0.0150    -4.3350    -0.0300 ha         1 9CJ       0.093000
     41 H10         -2.2820    -4.7070     0.8970 ha         1 9CJ       0.114000
     42 H15         -2.5810     1.0750    -1.1020 ha         1 9CJ       0.152000
     43 H18         -6.1510     0.5930     2.2380 h4         1 9CJ      -0.005900
     44 H17         -6.0450     2.6930     0.9100 ha         1 9CJ       0.139000
     45 H31         -4.4840    -1.9700     1.3910 ho         1 9CJ       0.531000
@<TRIPOS>BOND
     1     1     2 2   
     2     2     3 1   
     3     2    12 1   
     4     3     4 1   
     5     3    29 1   
     6     3    30 1   
     7     4     5 ar  
     8     4     8 ar  
     9     5     6 ar  
    10     5    32 1   
    11     6     7 ar  
    12     6    34 1   
    13     7     9 ar  
    14     7    35 1   
    15     8     9 ar  
    16     8    33 1   
    17     9    10 1   
    18    10    11 1   
    19    11    36 1   
    20    11    37 1   
    21    11    38 1   
    22    12    13 1   
    23    12    31 1   
    24    13    14 ar  
    25    13    19 ar  
    26    14    15 ar  
    27    14    39 1   
    28    15    16 ar  
    29    15    20 1   
    30    16    17 1   
    31    16    18 ar  
    32    17    45 1   
    33    18    19 ar  
    34    18    41 1   
    35    19    40 1   
    36    20    21 ar  
    37    20    25 ar  
    38    21    22 ar  
    39    22    23 ar  
    40    22    43 1   
    41    23    24 ar  
    42    23    44 1   
    43    24    25 ar  
    44    24    26 1   
    45    25    42 1   
    46    26    27 1   
    47    26    28 1   
@<TRIPOS>SUBSTRUCTURE
     1 9CJ         1 TEMP              0 ****  ****    0 ROOT
