@<TRIPOS>MOLECULE
9CJ
   45    47     1     0     0
SMALL
bcc


@<TRIPOS>ATOM
      1 O4           1.3390    -0.0170    -0.5530 o          1 9CJ      -0.555100
      2 C7           1.6960    -1.1500    -0.8220 c          1 9CJ       0.665100
      3 C6           3.0950    -1.4440    -1.3370 c3         1 9CJ      -0.117100
      4 C5           4.1400    -0.7520    -0.5080 ca         1 9CJ      -0.037300
      5 C4           4.7210    -1.4100     0.5770 ca         1 9CJ      -0.161000
      6 C3           5.6670    -0.7580     1.3490 ca         1 9CJ      -0.096000
      7 C2           6.0510     0.5480     1.0640 ca         1 9CJ      -0.216000
      8 C20          4.5170     0.5490    -0.7970 ca         1 9CJ      -0.130000
      9 C1           5.4720     1.2060    -0.0180 ca         1 9CJ       0.141100
     10 O            5.7700     2.4670    -0.3880 os         1 9CJ      -0.312900
     11 C            6.7260     3.1820     0.3670 c3         1 9CJ       0.127700
     12 N            0.9050    -2.2420    -0.7190 ns         1 9CJ      -0.469100
     13 C8          -0.4320    -2.3290    -0.2980 ca         1 9CJ       0.000600
     14 C13         -1.2870    -1.2450    -0.1750 ca         1 9CJ      -0.086000
     15 C12         -2.6180    -1.3960     0.2330 cp         1 9CJ      -0.203500
     16 C11         -3.0920    -2.6880     0.5420 ca         1 9CJ       0.173100
     17 O3          -4.3360    -2.9370     0.9590 oh         1 9CJ      -0.545100
     18 C10         -2.2270    -3.7760     0.4040 ca         1 9CJ      -0.180000
     19 C9          -0.9250    -3.6040    -0.0070 ca         1 9CJ      -0.145000
     20 C14         -3.5040    -0.2150     0.3230 cp         1 9CJ       0.440800
     21 N1          -4.7290    -0.4250     0.8180 nb         1 9CJ      -0.765000
     22 C18         -5.5860     0.5830     0.9220 ca         1 9CJ       0.380200
     23 C17         -5.2760     1.8710     0.5340 ca         1 9CJ      -0.213300
     24 C16         -4.0120     2.1220     0.0100 ca         1 9CJ      -0.101600
     25 C15         -3.1240     1.0630    -0.0910 ca         1 9CJ      -0.198300
     26 C19         -3.6110     3.5230    -0.4560 c          1 9CJ       0.924200
     27 O2          -2.4470     3.6490    -0.8750 o          1 9CJ      -0.810300
     28 O1          -4.4900     4.3970    -0.3730 o          1 9CJ      -0.810300
     29 H61C         3.2900    -2.5170    -1.3720 hc         1 9CJ       0.060700
     30 H62C         3.1340    -1.0880    -2.3700 hc         1 9CJ       0.060700
     31 H            1.3370    -3.1270    -0.9300 hn         1 9CJ       0.303500
     32 H4           4.4360    -2.4280     0.8090 ha         1 9CJ       0.126000
     33 H20          4.0800     1.0700    -1.6410 ha         1 9CJ       0.156000
     34 H3           6.1220    -1.2680     2.1880 ha         1 9CJ       0.123000
     35 H2           6.7970     1.0260     1.6850 ha         1 9CJ       0.129000
     36 HC1          6.8110     4.1650    -0.0920 h1         1 9CJ       0.036700
     37 HC2          6.4160     3.3060     1.4080 h1         1 9CJ       0.036700
     38 HC3          7.7070     2.7000     0.3470 h1         1 9CJ       0.036700
     39 H13         -0.9150    -0.2600    -0.4010 ha         1 9CJ       0.175000
     40 H9          -0.2790    -4.4690    -0.1000 ha         1 9CJ       0.111000
     41 H10         -2.5940    -4.7680     0.6310 ha         1 9CJ       0.132000
     42 H15         -2.1440     1.2560    -0.5020 ha         1 9CJ       0.170000
     43 H18         -6.5590     0.3420     1.3320 h4         1 9CJ      -0.005900
     44 H17         -6.0050     2.6620     0.6340 ha         1 9CJ       0.157000
     45 H31         -4.7940    -2.0540     1.0380 ho         1 9CJ       0.492000
@<TRIPOS>BOND
     1     1     2 2   
     2     2     3 1   
     3     2    12 1   
     4     3     4 1   
     5     3    29 1   
     6     3    30 1   
     7     4     5 ar  
     8     4     8 ar  
     9     5     6 ar  
    10     5    32 1   
    11     6     7 ar  
    12     6    34 1   
    13     7     9 ar  
    14     7    35 1   
    15     8     9 ar  
    16     8    33 1   
    17     9    10 1   
    18    10    11 1   
    19    11    36 1   
    20    11    37 1   
    21    11    38 1   
    22    12    13 1   
    23    12    31 1   
    24    13    14 ar  
    25    13    19 ar  
    26    14    15 ar  
    27    14    39 1   
    28    15    16 ar  
    29    15    20 1   
    30    16    17 1   
    31    16    18 ar  
    32    17    45 1   
    33    18    19 ar  
    34    18    41 1   
    35    19    40 1   
    36    20    21 ar  
    37    20    25 ar  
    38    21    22 ar  
    39    22    23 ar  
    40    22    43 1   
    41    23    24 ar  
    42    23    44 1   
    43    24    25 ar  
    44    24    26 1   
    45    25    42 1   
    46    26    27 1   
    47    26    28 1   
@<TRIPOS>SUBSTRUCTURE
     1 9CJ         1 TEMP              0 ****  ****    0 ROOT
