@<TRIPOS>MOLECULE
9CK
   49    51     1     0     0
SMALL
abcg2


@<TRIPOS>ATOM
      1 C10         -1.3680    -0.3520   -25.4710 c3         1 9CK       0.039000
      2 N12         -1.6880    -2.4340   -24.2310 n          1 9CK      -0.303200
      3 C15          1.0010    -2.7370   -23.6340 ca         1 9CK      -0.132000
      4 C17          3.2730    -3.0120   -24.3880 ca         1 9CK      -0.119000
      5 C21         -1.5110    -4.3960   -25.3630 c5         1 9CK       0.155800
      6 C22         -1.9760    -4.7520   -23.9470 c5         1 9CK      -0.125400
      7 C26         -6.8690     3.5850   -24.9180 ca         1 9CK      -0.055500
      8 C02         -7.8240     2.3410   -23.0730 ca         1 9CK       0.285000
      9 C03         -7.0110     1.2550   -23.4310 ca         1 9CK      -0.175500
     10 C04         -6.1510     1.3420   -24.5140 ca         1 9CK      -0.055500
     11 C05         -6.0620     2.5080   -25.2790 ca         1 9CK      -0.171300
     12 C06         -5.1160     2.5990   -26.4540 c3         1 9CK       0.163300
     13 C08         -3.1760     1.0930   -26.2090 c          1 9CK       0.638100
     14 C11         -2.0470    -1.1390   -24.3490 c          1 9CK       0.594100
     15 C14          0.5090    -3.0630   -24.9000 ca         1 9CK       0.230000
     16 C16          2.3660    -2.7090   -23.3800 ca         1 9CK      -0.086000
     17 C18          2.8060    -3.3260   -25.6590 ca         1 9CK      -0.074000
     18 C19          1.4410    -3.3350   -25.9080 ca         1 9CK      -0.017900
     19 C23         -2.3930    -3.3970   -23.3650 c5         1 9CK       0.089000
     20 C27         -7.7390     3.5100   -23.8360 ca         1 9CK      -0.175500
     21 N07         -3.7260     2.3360   -26.1050 ns         1 9CK      -0.506900
     22 N09         -1.9280     0.9610   -25.6500 ns         1 9CK      -0.485900
     23 N13         -0.8820    -3.0640   -25.2050 nh         1 9CK      -0.475400
     24 O24         -2.8460    -0.6280   -23.5670 o          1 9CK      -0.611100
     25 O25         -3.7220     0.1610   -26.8080 o          1 9CK      -0.640100
     26 BR           0.8590    -3.6820   -27.7010 br         1 9CK      -0.093100
     27 H1          -1.4420    -0.9220   -26.3940 h1         1 9CK       0.091700
     28 H2          -0.3060    -0.2540   -25.2420 h1         1 9CK       0.091700
     29 H3           0.3010    -2.4990   -22.8450 ha         1 9CK       0.130000
     30 H4           4.3380    -2.9940   -24.1980 ha         1 9CK       0.122000
     31 H5          -2.3550    -4.2940   -26.0460 h1         1 9CK       0.080200
     32 H6          -0.7990    -5.1020   -25.7760 h1         1 9CK       0.080200
     33 H7          -2.7960    -5.4670   -23.9480 hc         1 9CK       0.062700
     34 H8          -1.1480    -5.1750   -23.3770 hc         1 9CK       0.062700
     35 H9          -6.8130     4.5060   -25.4880 ha         1 9CK       0.119000
     36 H10         -7.0610     0.3410   -22.8500 ha         1 9CK       0.112500
     37 H11         -5.5320     0.4890   -24.7650 ha         1 9CK       0.119000
     38 H12         -5.1780     3.5950   -26.8950 h1         1 9CK       0.065700
     39 H13         -5.3860     1.8800   -27.2260 h1         1 9CK       0.065700
     40 H14          2.7170    -2.4560   -22.3880 ha         1 9CK       0.120000
     41 H15          3.4980    -3.5440   -26.4610 ha         1 9CK       0.132000
     42 H16         -3.4650    -3.2170   -23.4430 h1         1 9CK       0.064200
     43 H17         -2.0940    -3.2720   -22.3240 h1         1 9CK       0.064200
     44 H18         -8.3520     4.3640   -23.5730 ha         1 9CK       0.112500
     45 H19         -8.4900     1.5480   -21.3190 hn         1 9CK       0.443500
     46 H20         -9.0080     3.1120   -21.6050 hn         1 9CK       0.443500
     47 H21         -3.2890     2.9920   -25.4750 hn         1 9CK       0.300500
     48 H22         -1.6460     1.6610   -24.9810 hn         1 9CK       0.299500
     49 N01         -8.7290     2.2340   -22.0200 nv         1 9CK      -1.071000
@<TRIPOS>BOND
     1     1    14 1   
     2     1    22 1   
     3     1    27 1   
     4     1    28 1   
     5     2    14 1   
     6     2    19 1   
     7     2    23 1   
     8     3    15 ar  
     9     3    16 ar  
    10     3    29 1   
    11     4    16 ar  
    12     4    17 ar  
    13     4    30 1   
    14     5     6 1   
    15     5    23 1   
    16     5    31 1   
    17     5    32 1   
    18     6    19 1   
    19     6    33 1   
    20     6    34 1   
    21     7    11 ar  
    22     7    20 ar  
    23     7    35 1   
    24     8     9 ar  
    25     8    20 ar  
    26     8    49 1   
    27     9    10 ar  
    28     9    36 1   
    29    10    11 ar  
    30    10    37 1   
    31    11    12 1   
    32    12    21 1   
    33    12    38 1   
    34    12    39 1   
    35    13    21 1   
    36    13    22 1   
    37    13    25 2   
    38    14    24 2   
    39    15    18 ar  
    40    15    23 1   
    41    16    40 1   
    42    17    18 ar  
    43    17    41 1   
    44    18    26 1   
    45    19    42 1   
    46    19    43 1   
    47    20    44 1   
    48    21    47 1   
    49    22    48 1   
    50    45    49 1   
    51    46    49 1   
@<TRIPOS>SUBSTRUCTURE
     1 9CK         1 TEMP              0 ****  ****    0 ROOT
