@<TRIPOS>MOLECULE
9CK
   49    51     1     0     0
SMALL
No Charge or Current Charge


@<TRIPOS>ATOM
      1 C10         -2.2430    -1.7020   -24.8170 c3         1 9CK       0.039000
      2 N12         -1.1710    -3.6940   -23.6650 n          1 9CK      -0.303200
      3 C15          1.3870    -2.4570   -24.0320 ca         1 9CK      -0.132000
      4 C17          2.9740    -1.4740   -25.5920 ca         1 9CK      -0.119000
      5 C21         -0.2640    -5.4460   -24.8110 c5         1 9CK       0.155800
      6 C22         -0.0250    -5.6840   -23.2900 c5         1 9CK      -0.125400
      7 C26         -5.9940     3.9920   -24.4160 ca         1 9CK      -0.055500
      8 C02         -8.3680     4.2250   -23.9300 ca         1 9CK       0.285000
      9 C03         -8.6450     3.1450   -24.7790 ca         1 9CK      -0.175500
     10 C04         -7.6000     2.4850   -25.4500 ca         1 9CK      -0.055500
     11 C05         -6.2690     2.9070   -25.2720 ca         1 9CK      -0.171300
     12 C06         -5.1360     2.1950   -25.9930 c3         1 9CK       0.163300
     13 C08         -3.6030     0.2730   -25.5790 c          1 9CK       0.638100
     14 C11         -2.1390    -2.6560   -23.5990 c          1 9CK       0.594100
     15 C14          0.7350    -3.1330   -25.0890 ca         1 9CK       0.230000
     16 C16          2.4980    -1.6330   -24.2820 ca         1 9CK      -0.086000
     17 C18          2.3380    -2.1370   -26.6530 ca         1 9CK      -0.074000
     18 C19          1.2260    -2.9620   -26.4060 ca         1 9CK      -0.017900
     19 C23         -1.0730    -4.7440   -22.6350 c5         1 9CK       0.089000
     20 C27         -7.0430     4.6470   -23.7480 ca         1 9CK      -0.175500
     21 N07         -4.6220     1.0920   -25.1890 ns         1 9CK      -0.506900
     22 N09         -3.3060    -0.6840   -24.6510 ns         1 9CK      -0.485900
     23 N13         -0.3930    -3.9700   -24.8530 nh         1 9CK      -0.475400
     24 O24         -2.8570    -2.5260   -22.6100 o          1 9CK      -0.611100
     25 O25         -3.0190     0.3820   -26.6440 o          1 9CK      -0.640100
     26 Br           0.3780    -3.8170   -27.9050 br         1 9CK      -0.093100
     27 H1          -2.4440    -2.3090   -25.7080 h1         1 9CK       0.091700
     28 H2          -1.2740    -1.2060   -24.9450 h1         1 9CK       0.091700
     29 H3           1.0420    -2.5730   -23.0090 ha         1 9CK       0.130000
     30 H4           3.8350    -0.8360   -25.7860 ha         1 9CK       0.122000
     31 H5          -1.1830    -5.9330   -25.1660 h1         1 9CK       0.080200
     32 H6           0.5710    -5.8130   -25.4230 h1         1 9CK       0.080200
     33 H7          -0.1560    -6.7310   -22.9990 hc         1 9CK       0.062700
     34 H8           0.9930    -5.3910   -23.0080 hc         1 9CK       0.062700
     35 H9          -4.9680     4.3260   -24.2670 ha         1 9CK       0.119000
     36 H10         -9.6700     2.8120   -24.9240 ha         1 9CK       0.112500
     37 H11         -7.8260     1.6460   -26.1060 ha         1 9CK       0.119000
     38 H12         -4.3190     2.9000   -26.1980 h1         1 9CK       0.065700
     39 H13         -5.4930     1.8010   -26.9550 h1         1 9CK       0.065700
     40 H14          2.9910    -1.1210   -23.4580 ha         1 9CK       0.120000
     41 H15          2.7040    -2.0090   -27.6690 ha         1 9CK       0.132000
     42 H16         -2.0410    -5.2460   -22.5000 h1         1 9CK       0.064200
     43 H17         -0.7380    -4.3510   -21.6660 h1         1 9CK       0.064200
     44 H18         -6.8220     5.4830   -23.0910 ha         1 9CK       0.112500
     45 H19        -10.3270     4.4730   -23.3000 hn         1 9CK       0.443500
     46 H20         -9.1780     5.5540   -22.5590 hn         1 9CK       0.443500
     47 H21         -5.0450     0.9210   -24.2870 hn         1 9CK       0.300500
     48 H22         -3.8470    -0.6940   -23.7950 hn         1 9CK       0.299500
     49 N01         -9.3870     4.8640   -23.2780 nv         1 9CK      -1.071000
@<TRIPOS>BOND
     1     1    14 1   
     2     1    22 1   
     3     1    27 1   
     4     1    28 1   
     5     2    14 1   
     6     2    19 1   
     7     2    23 1   
     8     3    15 ar  
     9     3    16 ar  
    10     3    29 1   
    11     4    16 ar  
    12     4    17 ar  
    13     4    30 1   
    14     5     6 1   
    15     5    23 1   
    16     5    31 1   
    17     5    32 1   
    18     6    19 1   
    19     6    33 1   
    20     6    34 1   
    21     7    11 ar  
    22     7    20 ar  
    23     7    35 1   
    24     8     9 ar  
    25     8    20 ar  
    26     8    49 1   
    27     9    10 ar  
    28     9    36 1   
    29    10    11 ar  
    30    10    37 1   
    31    11    12 1   
    32    12    21 1   
    33    12    38 1   
    34    12    39 1   
    35    13    21 1   
    36    13    22 1   
    37    13    25 2   
    38    14    24 2   
    39    15    18 ar  
    40    15    23 1   
    41    16    40 1   
    42    17    18 ar  
    43    17    41 1   
    44    18    26 1   
    45    19    42 1   
    46    19    43 1   
    47    20    44 1   
    48    21    47 1   
    49    22    48 1   
    50    45    49 1   
    51    46    49 1   
@<TRIPOS>SUBSTRUCTURE
     1 9CK         1 TEMP              0 ****  ****    0 ROOT
