@<TRIPOS>MOLECULE
9CL
   15    15     1     0     0
SMALL
bcc


@<TRIPOS>ATOM
      1 C            1.3950     0.0110     0.9740 c3         1 9CL       0.106300
      2 C1          -0.0220     0.0040     0.5080 ca         1 9CL      -0.105300
      3 C2          -0.6980     1.2010     0.2880 ca         1 9CL      -0.106000
      4 C3          -2.0100     1.1950    -0.1640 ca         1 9CL      -0.130000
      5 C4          -2.6580    -0.0100    -0.4030 ca         1 9CL      -0.116000
      6 C5          -1.9900    -1.2080    -0.1860 ca         1 9CL      -0.130000
      7 C6          -0.6780    -1.2000     0.2650 ca         1 9CL      -0.106000
      8 CL1          2.5260    -0.0340    -0.4450 cl         1 9CL      -0.215400
      9 H            1.6400     0.9130     1.5300 h1         1 9CL       0.068700
     10 HA           1.6340    -0.8580     1.5810 h1         1 9CL       0.068700
     11 H2          -0.1970     2.1430     0.4750 ha         1 9CL       0.133000
     12 H3          -2.5270     2.1310    -0.3280 ha         1 9CL       0.133000
     13 H4          -3.6810    -0.0160    -0.7560 ha         1 9CL       0.132000
     14 H5          -2.4910    -2.1500    -0.3670 ha         1 9CL       0.133000
     15 H6          -0.1610    -2.1380     0.4350 ha         1 9CL       0.133000
@<TRIPOS>BOND
     1     1     2 1   
     2     1     8 1   
     3     1     9 1   
     4     1    10 1   
     5     2     3 ar  
     6     2     7 ar  
     7     3     4 ar  
     8     3    11 1   
     9     4     5 ar  
    10     4    12 1   
    11     5     6 ar  
    12     5    13 1   
    13     6     7 ar  
    14     6    14 1   
    15     7    15 1   
@<TRIPOS>SUBSTRUCTURE
     1 9CL         1 TEMP              0 ****  ****    0 ROOT
