@<TRIPOS>MOLECULE
9CL
   15    15     1     0     0
SMALL
No Charge or Current Charge


@<TRIPOS>ATOM
      1 C            1.4350     0.0080     0.9740 c3         1 9CL       0.182900
      2 C1          -0.0100     0.0020     0.4930 ca         1 9CL      -0.105300
      3 C2          -0.6910     1.2150     0.2710 ca         1 9CL      -0.088000
      4 C3          -2.0240     1.2090    -0.1730 ca         1 9CL      -0.112000
      5 C4          -2.6860    -0.0100    -0.3990 ca         1 9CL      -0.098000
      6 C5          -2.0110    -1.2230    -0.1810 ca         1 9CL      -0.112000
      7 C6          -0.6780    -1.2180     0.2640 ca         1 9CL      -0.088000
      8 Cl1          2.5940     0.0190    -0.4280 cl         1 9CL      -0.292000
      9 H            1.6380     0.8990     1.5820 h1         1 9CL       0.068700
     10 HA           1.6470    -0.8850     1.5760 h1         1 9CL       0.068700
     11 H2          -0.1860     2.1640     0.4420 ha         1 9CL       0.115000
     12 H3          -2.5450     2.1490    -0.3430 ha         1 9CL       0.115000
     13 H4          -3.7180    -0.0140    -0.7430 ha         1 9CL       0.114000
     14 H5          -2.5220    -2.1680    -0.3570 ha         1 9CL       0.115000
     15 H6          -0.1620    -2.1630     0.4280 ha         1 9CL       0.115000
@<TRIPOS>BOND
     1     1     2 1   
     2     1     8 1   
     3     1     9 1   
     4     1    10 1   
     5     2     3 ar  
     6     2     7 ar  
     7     3     4 ar  
     8     3    11 1   
     9     4     5 ar  
    10     4    12 1   
    11     5     6 ar  
    12     5    13 1   
    13     6     7 ar  
    14     6    14 1   
    15     7    15 1   
@<TRIPOS>SUBSTRUCTURE
     1 9CL         1 TEMP              0 ****  ****    0 ROOT
