@<TRIPOS>MOLECULE
9CP
   30    30     1     0     0
SMALL
abcg2


@<TRIPOS>ATOM
      1 C1         -31.6640     0.6130     7.0470 c6         1 9CP       0.076900
      2 C2         -29.5030    -0.1970     7.7530 c          1 9CP       0.626900
      3 C3         -30.5160     1.6440     9.0000 c6         1 9CP       0.103000
      4 O4         -33.7390    -1.6400    10.3490 o          1 9CP      -0.713533
      5 O5         -32.2870    -2.0260    12.2690 o          1 9CP      -0.713533
      6 C7         -34.3140     1.7640     9.6710 c3         1 9CP      -0.048900
      7 S          -32.4030    -1.9760    10.8180 s6         1 9CP       1.526300
      8 O3         -31.7770    -3.0890    10.1180 o          1 9CP      -0.713533
      9 O2         -31.3990    -0.7600    10.3250 os         1 9CP      -0.427000
     10 N2         -31.7470     0.5130    10.9180 n7         1 9CP      -0.535900
     11 C4         -31.7730     1.5400     9.8660 c6         1 9CP       0.160700
     12 N1         -30.5160     0.6640     7.9250 n          1 9CP      -0.375800
     13 O1         -29.4330    -1.0380     6.8600 o          1 9CP      -0.624100
     14 C5         -33.0120     1.4200     9.0150 c2         1 9CP      -0.041400
     15 C6         -32.9300     1.0310     7.7450 c2         1 9CP      -0.239200
     16 C          -31.4360     1.4700     5.7800 c          1 9CP       0.592100
     17 O          -30.5980     2.3640     5.7420 o          1 9CP      -0.622100
     18 N          -32.2420     1.1640     4.7510 nt         1 9CP      -0.611000
     19 H1         -31.7730    -0.4220     6.7150 h1         1 9CP       0.102700
     20 H2         -28.7140    -0.0840     8.5110 h5         1 9CP       0.011200
     21 H3         -29.6210     1.4930     9.6020 h1         1 9CP       0.047200
     22 H4         -30.4720     2.6480     8.5710 h1         1 9CP       0.047200
     23 H5         -34.3010     2.7970    10.0330 hc         1 9CP       0.046367
     24 H6         -35.1510     1.6460     8.9830 hc         1 9CP       0.046367
     25 H7         -34.4800     1.1200    10.5370 hc         1 9CP       0.046367
     26 H8         -30.9560     0.7030    11.5280 hn         1 9CP       0.394000
     27 H9         -31.8430     2.4700    10.4420 h1         1 9CP       0.049700
     28 H10        -33.8260     0.9700     7.1390 ha         1 9CP       0.171000
     29 H11        -32.1910     1.7010     3.8990 hn         1 9CP       0.309500
     30 H12        -32.8910     0.3960     4.7920 hn         1 9CP       0.309500
@<TRIPOS>BOND
     1     1    12 1   
     2     1    15 1   
     3     1    16 1   
     4     1    19 1   
     5     2    12 1   
     6     2    13 2   
     7     2    20 1   
     8     3    11 1   
     9     3    12 1   
    10     3    21 1   
    11     3    22 1   
    12     4     7 1   
    13     5     7 1   
    14     6    14 1   
    15     6    23 1   
    16     6    24 1   
    17     6    25 1   
    18     7     8 1   
    19     7     9 1   
    20     9    10 1   
    21    10    11 1   
    22    10    26 1   
    23    11    14 1   
    24    11    27 1   
    25    14    15 2   
    26    15    28 1   
    27    16    17 2   
    28    16    18 1   
    29    18    29 1   
    30    18    30 1   
@<TRIPOS>SUBSTRUCTURE
     1 9CP         1 TEMP              0 ****  ****    0 ROOT
