@<TRIPOS>MOLECULE
9CP
   30    30     1     0     0
SMALL
No Charge or Current Charge


@<TRIPOS>ATOM
      1 C1         -31.6150     0.6330     6.9840 c6         1 9CP       0.076900
      2 C2         -29.3810    -0.2480     7.8200 c          1 9CP       0.626900
      3 C3         -30.4980     1.6890     8.9810 c6         1 9CP       0.103000
      4 O4         -33.8360    -1.7450    10.5990 o          1 9CP      -0.713533
      5 O5         -32.1800    -2.0760    12.4030 o          1 9CP      -0.713533
      6 C7         -34.3380     1.7470     9.6420 c3         1 9CP      -0.048900
      7 S          -32.4510    -2.1000    10.9540 s6         1 9CP       1.526300
      8 O3         -31.9450    -3.3010    10.2690 o          1 9CP      -0.713533
      9 O2         -31.5140    -0.8520    10.3330 os         1 9CP      -0.427000
     10 N2         -31.6830     0.5300    10.9100 n7         1 9CP      -0.535900
     11 C4         -31.7780     1.5800     9.8550 c6         1 9CP       0.160700
     12 N1         -30.4480     0.6580     7.9180 n          1 9CP      -0.375800
     13 O1         -29.3050    -1.0940     6.9330 o          1 9CP      -0.624100
     14 C5         -33.0190     1.3910     8.9780 c2         1 9CP      -0.041400
     15 C6         -32.9310     0.9680     7.7020 c2         1 9CP      -0.239200
     16 C          -31.4110     1.5010     5.7020 c          1 9CP       0.592100
     17 O          -30.5070     2.3130     5.5640 o          1 9CP      -0.622100
     18 N          -32.3170     1.3390     4.7080 nt         1 9CP      -0.611000
     19 H1         -31.7170    -0.3920     6.6010 h1         1 9CP       0.102700
     20 H2         -28.6190    -0.1120     8.6110 h5         1 9CP       0.011200
     21 H3         -29.6030     1.6320     9.6170 h1         1 9CP       0.047200
     22 H4         -30.4860     2.6770     8.4990 h1         1 9CP       0.047200
     23 H5         -34.3470     2.7960     9.9600 hc         1 9CP       0.046367
     24 H6         -35.1860     1.6010     8.9630 hc         1 9CP       0.046367
     25 H7         -34.5160     1.1270    10.5280 hc         1 9CP       0.046367
     26 H8         -30.8630     0.6850    11.5110 hn         1 9CP       0.394000
     27 H9         -31.8810     2.5420    10.3800 h1         1 9CP       0.049700
     28 H10        -33.8370     0.8490     7.1070 ha         1 9CP       0.171000
     29 H11        -32.2260     1.8870     3.8650 hn         1 9CP       0.309500
     30 H12        -33.0700     0.6740     4.8080 hn         1 9CP       0.309500
@<TRIPOS>BOND
     1     1    12 1   
     2     1    15 1   
     3     1    16 1   
     4     1    19 1   
     5     2    12 1   
     6     2    13 2   
     7     2    20 1   
     8     3    11 1   
     9     3    12 1   
    10     3    21 1   
    11     3    22 1   
    12     4     7 1   
    13     5     7 1   
    14     6    14 1   
    15     6    23 1   
    16     6    24 1   
    17     6    25 1   
    18     7     8 1   
    19     7     9 1   
    20     9    10 1   
    21    10    11 1   
    22    10    26 1   
    23    11    14 1   
    24    11    27 1   
    25    14    15 2   
    26    15    28 1   
    27    16    17 2   
    28    16    18 1   
    29    18    29 1   
    30    18    30 1   
@<TRIPOS>SUBSTRUCTURE
     1 9CP         1 TEMP              0 ****  ****    0 ROOT
