@<TRIPOS>MOLECULE
9CQ
   41    43     1     0     0
SMALL
bcc


@<TRIPOS>ATOM
      1 O            4.0430    -1.2370     0.7270 o          1 9CQ      -0.587100
      2 C2           4.5600    -0.2980     0.1350 c          1 9CQ       0.665100
      3 N            5.8770    -0.0380     0.2320 n          1 9CQ      -0.484800
      4 C1           6.6840    -0.8560     1.1190 c3         1 9CQ       0.092300
      5 C            6.5550     1.0320    -0.4710 c3         1 9CQ       0.092300
      6 C3           3.7290     0.6310    -0.7410 c3         1 9CQ      -0.112100
      7 C4           2.2620     0.3670    -0.5830 ca         1 9CQ      -0.051300
      8 C9           1.5290     1.0320     0.3940 ca         1 9CQ      -0.119500
      9 C8           0.1720     0.8000     0.5480 ca         1 9CQ      -0.093500
     10 C7          -0.4850    -0.1140    -0.2730 cp         1 9CQ      -0.160500
     11 C6           0.2510    -0.8000    -1.2380 ca         1 9CQ      -0.093500
     12 C5           1.6050    -0.5510    -1.3960 ca         1 9CQ      -0.119500
     13 C10         -1.9240    -0.4100    -0.1050 cp         1 9CQ       0.574800
     14 N2          -2.2500    -1.6730    -0.0670 nb         1 9CQ      -0.760000
     15 C17         -3.5570    -1.9920     0.1210 ca         1 9CQ       0.914900
     16 N3          -3.8250    -3.3110     0.1660 nv         1 9CQ      -0.953500
     17 N1          -4.5410    -1.1400     0.3000 nb         1 9CQ      -0.787000
     18 C16         -4.2310     0.1700     0.2310 ca         1 9CQ       0.475600
     19 C11         -2.9080     0.6190     0.0000 ca         1 9CQ      -0.314600
     20 C15         -5.2590     1.1300     0.3750 ca         1 9CQ      -0.198300
     21 C14         -4.9790     2.4650     0.2570 ca         1 9CQ      -0.092000
     22 C13         -3.6710     2.9080    -0.0190 ca         1 9CQ      -0.161000
     23 C12         -2.6540     1.9990    -0.1480 ca         1 9CQ      -0.072000
     24 H31C         3.9480     1.6720    -0.4930 hc         1 9CQ       0.064200
     25 H32C         4.0280     0.4990    -1.7850 hc         1 9CQ       0.064200
     26 H11C         6.9340    -1.8190     0.6690 h1         1 9CQ       0.040033
     27 H12C         7.6110    -0.3310     1.3350 h1         1 9CQ       0.040033
     28 H13C         6.1720    -1.0400     2.0610 h1         1 9CQ       0.040033
     29 HC1          6.6880     1.9130     0.1620 h1         1 9CQ       0.040033
     30 HC2          7.5380     0.6890    -0.7880 h1         1 9CQ       0.040033
     31 HC3          6.0190     1.3290    -1.3660 h1         1 9CQ       0.040033
     32 H9           2.0230     1.7420     1.0470 ha         1 9CQ       0.131500
     33 H5           2.1560    -1.0770    -2.1660 ha         1 9CQ       0.131500
     34 H8          -0.3700     1.3200     1.3280 ha         1 9CQ       0.140500
     35 H6          -0.2430    -1.5210    -1.8760 ha         1 9CQ       0.140500
     36 H31N        -3.1210    -3.9610    -0.1390 hn         1 9CQ       0.441300
     37 H32N        -4.7820    -3.6170     0.1320 hn         1 9CQ       0.441300
     38 H15         -6.2670     0.7840     0.5670 ha         1 9CQ       0.149000
     39 H12         -1.6560     2.3440    -0.3820 ha         1 9CQ       0.137000
     40 H14         -5.7740     3.1910     0.3630 ha         1 9CQ       0.131000
     41 H13         -3.4730     3.9650    -0.1370 ha         1 9CQ       0.133000
@<TRIPOS>BOND
     1     1     2 2   
     2     2     3 1   
     3     2     6 1   
     4     3     4 1   
     5     3     5 1   
     6     4    26 1   
     7     4    27 1   
     8     4    28 1   
     9     5    29 1   
    10     5    30 1   
    11     5    31 1   
    12     6     7 1   
    13     6    24 1   
    14     6    25 1   
    15     7     8 ar  
    16     7    12 ar  
    17     8     9 ar  
    18     8    32 1   
    19     9    10 ar  
    20     9    34 1   
    21    10    11 ar  
    22    10    13 1   
    23    11    12 ar  
    24    11    35 1   
    25    12    33 1   
    26    13    14 ar  
    27    13    19 ar  
    28    14    15 ar  
    29    15    16 1   
    30    15    17 ar  
    31    16    36 1   
    32    16    37 1   
    33    17    18 ar  
    34    18    19 ar  
    35    18    20 ar  
    36    19    23 ar  
    37    20    21 ar  
    38    20    38 1   
    39    21    22 ar  
    40    21    40 1   
    41    22    23 ar  
    42    22    41 1   
    43    23    39 1   
@<TRIPOS>SUBSTRUCTURE
     1 9CQ         1 TEMP              0 ****  ****    0 ROOT
