@<TRIPOS>MOLECULE
9CQ
   41    43     1     0     0
SMALL
No Charge or Current Charge


@<TRIPOS>ATOM
      1 O            4.9230    -1.5390    -1.5860 o          1 9CQ      -0.587100
      2 C2           4.8110    -0.4740    -0.9890 c          1 9CQ       0.598100
      3 N            5.5390    -0.2460     0.2050 n          1 9CQ      -0.417800
      4 C1           6.4820    -1.2720     0.7060 c3         1 9CQ       0.092300
      5 C            5.2400     0.8940     1.1010 c3         1 9CQ       0.092300
      6 C3           3.8870     0.6300    -1.5460 c3         1 9CQ      -0.112100
      7 C4           2.4360     0.3990    -1.1290 ca         1 9CQ      -0.051300
      8 C9           1.7980     1.2800    -0.2360 ca         1 9CQ      -0.101500
      9 C8           0.4630     1.0640     0.1440 ca         1 9CQ      -0.075500
     10 C7          -0.2760    -0.0300    -0.3700 cp         1 9CQ      -0.160500
     11 C6           0.3820    -0.9140    -1.2610 ca         1 9CQ      -0.075500
     12 C5           1.7170    -0.6970    -1.6410 ca         1 9CQ      -0.101500
     13 C10         -1.6930    -0.2770     0.0470 cp         1 9CQ       0.246500
     14 N2          -1.9550    -1.5120     0.5170 nb         1 9CQ      -0.234000
     15 C17         -3.1970    -1.7480     0.9520 ca         1 9CQ       0.388900
     16 N3          -3.4410    -2.9920     1.4340 nv         1 9CQ      -1.063900
     17 N1          -4.2320    -0.9000     0.9600 nb         1 9CQ      -0.261000
     18 C16         -4.0140     0.3370     0.4690 ca         1 9CQ       0.082000
     19 C11         -2.7310     0.7010    -0.0180 ca         1 9CQ      -0.184000
     20 C15         -5.0590     1.2780     0.4290 ca         1 9CQ      -0.115000
     21 C14         -4.8500     2.5620    -0.0980 ca         1 9CQ      -0.074000
     22 C13         -3.5880     2.9140    -0.5980 ca         1 9CQ      -0.143000
     23 C12         -2.5320     1.9890    -0.5630 ca         1 9CQ      -0.054000
     24 H31C         4.2100     1.6150    -1.1950 hc         1 9CQ       0.064200
     25 H32C         3.9450     0.6100    -2.6400 hc         1 9CQ       0.064200
     26 H11C         7.1120    -1.6350    -0.1160 h1         1 9CQ       0.040033
     27 H12C         7.1340    -0.8500     1.4810 h1         1 9CQ       0.040033
     28 H13C         5.9200    -2.1140     1.1290 h1         1 9CQ       0.040033
     29 HC1          4.1610     0.9500     1.2890 h1         1 9CQ       0.040033
     30 HC2          5.7510     0.7720     2.0650 h1         1 9CQ       0.040033
     31 HC3          5.5820     1.8300     0.6410 h1         1 9CQ       0.040033
     32 H9           2.3340     2.1340     0.1710 ha         1 9CQ       0.113500
     33 H5           2.1930    -1.3870    -2.3340 ha         1 9CQ       0.113500
     34 H8          -0.0050     1.7470     0.8500 ha         1 9CQ       0.122500
     35 H6          -0.1530    -1.7700    -1.6670 ha         1 9CQ       0.122500
     36 H31N        -2.7650    -3.7280     1.2430 hn         1 9CQ       0.496500
     37 H32N        -4.4080    -3.2820     1.5650 hn         1 9CQ       0.496500
     38 H15         -6.0430     1.0070     0.8050 ha         1 9CQ       0.131000
     39 H12         -1.5710     2.2820    -0.9770 ha         1 9CQ       0.119000
     40 H14         -5.6670     3.2800    -0.1260 ha         1 9CQ       0.113000
     41 H13         -3.4270     3.9050    -1.0180 ha         1 9CQ       0.115000
@<TRIPOS>BOND
     1     1     2 2   
     2     2     3 1   
     3     2     6 1   
     4     3     4 1   
     5     3     5 1   
     6     4    26 1   
     7     4    27 1   
     8     4    28 1   
     9     5    29 1   
    10     5    30 1   
    11     5    31 1   
    12     6     7 1   
    13     6    24 1   
    14     6    25 1   
    15     7     8 ar  
    16     7    12 ar  
    17     8     9 ar  
    18     8    32 1   
    19     9    10 ar  
    20     9    34 1   
    21    10    11 ar  
    22    10    13 1   
    23    11    12 ar  
    24    11    35 1   
    25    12    33 1   
    26    13    14 ar  
    27    13    19 ar  
    28    14    15 ar  
    29    15    16 1   
    30    15    17 ar  
    31    16    36 1   
    32    16    37 1   
    33    17    18 ar  
    34    18    19 ar  
    35    18    20 ar  
    36    19    23 ar  
    37    20    21 ar  
    38    20    38 1   
    39    21    22 ar  
    40    21    40 1   
    41    22    23 ar  
    42    22    41 1   
    43    23    39 1   
@<TRIPOS>SUBSTRUCTURE
     1 9CQ         1 TEMP              0 ****  ****    0 ROOT
