@<TRIPOS>MOLECULE
9CR
   49    49     1     0     0
SMALL
abcg2


@<TRIPOS>ATOM
      1 C1           4.3350     0.2150    -0.8270 c6         1 9CR      -0.000800
      2 C2           4.8880     1.6290    -1.0300 c6         1 9CR      -0.067400
      3 C3           5.1300     2.3490     0.2810 c6         1 9CR      -0.070400
      4 C4           3.8180     2.4940     1.0320 c6         1 9CR      -0.037200
      5 C5           2.9710     1.2480     1.0360 c2         1 9CR      -0.113400
      6 C6           3.1900     0.2240     0.1890 ce         1 9CR      -0.062200
      7 C7           2.3740    -0.9960     0.1690 ce         1 9CR      -0.218000
      8 C8           1.0330    -1.0560     0.1650 cf         1 9CR      -0.133000
      9 C9           0.2580    -2.2830     0.0770 cf         1 9CR      -0.147200
     10 C10         -1.0960    -2.2830     0.0350 ce         1 9CR      -0.107000
     11 C11         -1.9800    -1.1460     0.1110 ce         1 9CR      -0.280000
     12 C12         -3.3160    -1.2590    -0.0190 cf         1 9CR      -0.088000
     13 C13         -4.2760    -0.1640     0.0440 cf         1 9CR      -0.157200
     14 C14         -5.5790    -0.4690    -0.1280 ce         1 9CR      -0.188200
     15 C15         -6.8000     0.4170    -0.0900 c          1 9CR       0.695200
     16 C16          5.4520    -0.7210    -0.3430 c3         1 9CR      -0.078100
     17 C17          3.8300    -0.2840    -2.1870 c3         1 9CR      -0.078100
     18 C18          1.8740     1.2790     2.0620 c3         1 9CR      -0.053900
     19 C19          1.0000    -3.5860     0.0020 c3         1 9CR      -0.039900
     20 C20         -3.7380     1.2080     0.3240 c3         1 9CR      -0.038900
     21 O1          -6.6730     1.6540    -0.1960 o          1 9CR      -0.719500
     22 O2          -7.8790    -0.2010     0.0440 o          1 9CR      -0.719500
     23 H1           5.8060     1.5730    -1.6240 hc         1 9CR       0.037700
     24 H2           4.1720     2.2090    -1.6250 hc         1 9CR       0.037700
     25 H3           5.8480     1.7960     0.8920 hc         1 9CR       0.034700
     26 H4           5.5700     3.3330     0.1040 hc         1 9CR       0.034700
     27 H5           4.0050     2.7990     2.0660 hc         1 9CR       0.040700
     28 H6           3.2280     3.3100     0.5940 hc         1 9CR       0.040700
     29 H7           2.9300    -1.9250     0.0770 ha         1 9CR       0.164000
     30 H8           0.4820    -0.1240     0.1950 ha         1 9CR       0.178000
     31 H9          -1.5900    -3.2460    -0.0700 ha         1 9CR       0.157000
     32 H10         -1.5520    -0.1650     0.2850 ha         1 9CR       0.175000
     33 H11         -3.7320    -2.2470    -0.1990 ha         1 9CR       0.152000
     34 H12         -5.8060    -1.5200    -0.2920 ha         1 9CR       0.143000
     35 H13          6.2510    -0.7790    -1.0850 hc         1 9CR       0.031700
     36 H14          5.8900    -0.3810     0.5970 hc         1 9CR       0.031700
     37 H15          5.0890    -1.7380    -0.1820 hc         1 9CR       0.031700
     38 H16          4.6260    -0.2060    -2.9310 hc         1 9CR       0.031700
     39 H17          3.5100    -1.3260    -2.1590 hc         1 9CR       0.031700
     40 H18          2.9860     0.3130    -2.5350 hc         1 9CR       0.031700
     41 H19          2.2420     1.7160     2.9930 hc         1 9CR       0.041700
     42 H20          1.0440     1.9110     1.7330 hc         1 9CR       0.041700
     43 H21          1.4650     0.2960     2.2860 hc         1 9CR       0.041700
     44 H22          1.6380    -3.7330     0.8750 hc         1 9CR       0.028367
     45 H23          0.3130    -4.4290    -0.0560 hc         1 9CR       0.028367
     46 H24          1.6520    -3.6250    -0.8740 hc         1 9CR       0.028367
     47 H25         -3.0110     1.5030    -0.4370 hc         1 9CR       0.036033
     48 H26         -4.5290     1.9480     0.3480 hc         1 9CR       0.036033
     49 H27         -3.2090     1.2220     1.2800 hc         1 9CR       0.036033
@<TRIPOS>BOND
     1     1     2 1   
     2     1     6 1   
     3     1    16 1   
     4     1    17 1   
     5     2     3 1   
     6     2    23 1   
     7     2    24 1   
     8     3     4 1   
     9     3    25 1   
    10     3    26 1   
    11     4     5 1   
    12     4    27 1   
    13     4    28 1   
    14     5     6 2   
    15     5    18 1   
    16     6     7 1   
    17     7     8 2   
    18     7    29 1   
    19     8     9 1   
    20     8    30 1   
    21     9    10 2   
    22     9    19 1   
    23    10    11 1   
    24    10    31 1   
    25    11    12 2   
    26    11    32 1   
    27    12    13 1   
    28    12    33 1   
    29    13    14 2   
    30    13    20 1   
    31    14    15 1   
    32    14    34 1   
    33    15    21 1   
    34    15    22 1   
    35    16    35 1   
    36    16    36 1   
    37    16    37 1   
    38    17    38 1   
    39    17    39 1   
    40    17    40 1   
    41    18    41 1   
    42    18    42 1   
    43    18    43 1   
    44    19    44 1   
    45    19    45 1   
    46    19    46 1   
    47    20    47 1   
    48    20    48 1   
    49    20    49 1   
@<TRIPOS>SUBSTRUCTURE
     1 9CR         1 TEMP              0 ****  ****    0 ROOT
