@<TRIPOS>MOLECULE
9CR
   49    49     1     0     0
SMALL
No Charge or Current Charge


@<TRIPOS>ATOM
      1 C1           4.5570     0.1100    -0.7260 c6         1 9CR      -0.000800
      2 C2           5.1040     1.5360    -1.0270 c6         1 9CR      -0.067400
      3 C3           5.0700     2.4400     0.2180 c6         1 9CR      -0.070400
      4 C4           3.6190     2.6440     0.6950 c6         1 9CR      -0.037200
      5 C5           2.7780     1.3630     0.7330 c2         1 9CR      -0.113400
      6 C6           3.1550     0.2340     0.0320 ce         1 9CR      -0.062200
      7 C7           2.3640    -1.0120     0.0120 ce         1 9CR      -0.218000
      8 C8           1.0110    -1.0940    -0.1460 cf         1 9CR      -0.133000
      9 C9           0.2070    -2.3210    -0.1970 cf         1 9CR      -0.147200
     10 C10         -1.1570    -2.3360    -0.0960 ce         1 9CR      -0.107000
     11 C11         -2.0500    -1.1880     0.1310 ce         1 9CR      -0.280000
     12 C12         -3.4110    -1.2750     0.1510 cf         1 9CR      -0.088000
     13 C13         -4.3690    -0.1830     0.3670 cf         1 9CR      -0.157200
     14 C14         -5.6810    -0.3610    -0.0030 ce         1 9CR      -0.188200
     15 C15         -6.8570     0.5730     0.0910 c          1 9CR       0.695200
     16 C16          5.6250    -0.6990     0.1260 c3         1 9CR      -0.078100
     17 C17          4.4500    -0.6520    -2.1120 c3         1 9CR      -0.078100
     18 C18          1.4990     1.5600     1.5880 c3         1 9CR      -0.053900
     19 C19          0.9610    -3.6260    -0.4270 c3         1 9CR      -0.039900
     20 C20         -3.8530     1.0760     1.0640 c3         1 9CR      -0.038900
     21 O1          -6.7150     1.7130     0.5060 o          1 9CR      -0.719500
     22 O2          -7.9340     0.1410    -0.2910 o          1 9CR      -0.719500
     23 H1           6.1310     1.4780    -1.4140 hc         1 9CR       0.037700
     24 H2           4.5060     2.0040    -1.8210 hc         1 9CR       0.037700
     25 H3           5.6750     2.0090     1.0260 hc         1 9CR       0.034700
     26 H4           5.5210     3.4140    -0.0150 hc         1 9CR       0.034700
     27 H5           3.6460     3.1130     1.6890 hc         1 9CR       0.040700
     28 H6           3.1210     3.3660     0.0340 hc         1 9CR       0.040700
     29 H7           2.9360    -1.9340     0.0930 ha         1 9CR       0.164000
     30 H8           0.4780    -0.1530    -0.2710 ha         1 9CR       0.178000
     31 H9          -1.6560    -3.3040    -0.1760 ha         1 9CR       0.157000
     32 H10         -1.5870    -0.2170     0.2870 ha         1 9CR       0.175000
     33 H11         -3.8470    -2.2580    -0.0410 ha         1 9CR       0.152000
     34 H12         -5.9440    -1.3150    -0.4540 ha         1 9CR       0.143000
     35 H13          6.6120    -0.6930    -0.3520 hc         1 9CR       0.031700
     36 H14          5.7390    -0.2820     1.1330 hc         1 9CR       0.031700
     37 H15          5.3270    -1.7470     0.2480 hc         1 9CR       0.031700
     38 H16          5.4080    -0.6470    -2.6480 hc         1 9CR       0.031700
     39 H17          4.1560    -1.7000    -1.9830 hc         1 9CR       0.031700
     40 H18          3.7050    -0.1810    -2.7640 hc         1 9CR       0.031700
     41 H19          1.7000     2.1530     2.4880 hc         1 9CR       0.041700
     42 H20          0.7190     2.0780     1.0170 hc         1 9CR       0.041700
     43 H21          1.0890     0.6050     1.9350 hc         1 9CR       0.041700
     44 H22          1.5020    -3.9330     0.4760 hc         1 9CR       0.028367
     45 H23          0.2890    -4.4480    -0.7000 hc         1 9CR       0.028367
     46 H24          1.6910    -3.5290    -1.2400 hc         1 9CR       0.028367
     47 H25         -3.6540     1.8770     0.3420 hc         1 9CR       0.036033
     48 H26         -4.5680     1.4550     1.8020 hc         1 9CR       0.036033
     49 H27         -2.9310     0.8980     1.6280 hc         1 9CR       0.036033
@<TRIPOS>BOND
     1     1     2 1   
     2     1     6 1   
     3     1    16 1   
     4     1    17 1   
     5     2     3 1   
     6     2    23 1   
     7     2    24 1   
     8     3     4 1   
     9     3    25 1   
    10     3    26 1   
    11     4     5 1   
    12     4    27 1   
    13     4    28 1   
    14     5     6 2   
    15     5    18 1   
    16     6     7 1   
    17     7     8 2   
    18     7    29 1   
    19     8     9 1   
    20     8    30 1   
    21     9    10 2   
    22     9    19 1   
    23    10    11 1   
    24    10    31 1   
    25    11    12 2   
    26    11    32 1   
    27    12    13 1   
    28    12    33 1   
    29    13    14 2   
    30    13    20 1   
    31    14    15 1   
    32    14    34 1   
    33    15    21 1   
    34    15    22 1   
    35    16    35 1   
    36    16    36 1   
    37    16    37 1   
    38    17    38 1   
    39    17    39 1   
    40    17    40 1   
    41    18    41 1   
    42    18    42 1   
    43    18    43 1   
    44    19    44 1   
    45    19    45 1   
    46    19    46 1   
    47    20    47 1   
    48    20    48 1   
    49    20    49 1   
@<TRIPOS>SUBSTRUCTURE
     1 9CR         1 TEMP              0 ****  ****    0 ROOT
