@<TRIPOS>MOLECULE
9CS
   70    72     1     0     0
SMALL
bcc


@<TRIPOS>ATOM
      1 C1           2.9350    -0.6190    -0.7510 c6         1 9CS       0.328900
      2 C2           3.2480    -1.9420    -0.0490 c6         1 9CS       0.099500
      3 C3           4.0970    -1.6810     1.1940 c6         1 9CS       0.119100
      4 C4           5.3640    -0.9450     0.7910 c6         1 9CS       0.123100
      5 C5           4.9870     0.3310     0.0390 c6         1 9CS       0.148100
      6 C6           6.1960     1.0520    -0.5320 c3         1 9CS       0.159800
      7 C7          -1.2260     2.7830    -0.1580 c6         1 9CS       0.133500
      8 C8          -1.4620     1.2750    -0.1750 c6         1 9CS       0.127100
      9 C9          -0.2160     0.5320     0.3210 c6         1 9CS       0.143100
     10 C10          1.0250     0.8660    -0.5030 c6         1 9CS       0.170100
     11 C11          1.2760     2.3720    -0.4920 c6         1 9CS       0.159500
     12 C12          0.0240     3.0890    -0.9820 c6         1 9CS      -0.120400
     13 C13         -3.8260     0.9360     0.2680 c6         1 9CS       0.315900
     14 C14         -4.7060     0.3680     1.3820 c6         1 9CS       0.089100
     15 C15         -4.4990    -1.1390     1.5520 c6         1 9CS       0.165500
     16 C16         -4.6890    -1.8280     0.2020 c6         1 9CS       0.130100
     17 C17         -3.8490    -1.1510    -0.8900 c6         1 9CS       0.104100
     18 C18         -4.1990    -1.6720    -2.2680 c3         1 9CS       0.146400
     19 N1           5.7950     2.2720    -1.2120 n8         1 9CS      -0.898800
     20 N2           2.3830     2.7150    -1.3670 n8         1 9CS      -0.900800
     21 N3          -2.4030     3.5050    -0.6170 n8         1 9CS      -0.888800
     22 N4          -5.3700    -1.7410     2.5440 n8         1 9CS      -0.863800
     23 O5           4.1380     0.0320    -1.0610 os         1 9CS      -0.427600
     24 O7           4.4330    -2.8980     1.8140 oh         1 9CS      -0.612800
     25 O8           6.1440    -0.5670     1.9020 oh         1 9CS      -0.596800
     26 O9           2.1150     0.1610     0.0640 os         1 9CS      -0.443600
     27 O10         -0.4100    -0.8600     0.2720 oh         1 9CS      -0.605800
     28 O11         -2.4970     0.8490     0.6940 os         1 9CS      -0.438600
     29 O12         -4.0710     0.2490    -0.9230 os         1 9CS      -0.417600
     30 O13         -4.4630     0.9900     2.6180 oh         1 9CS      -0.581800
     31 O14         -4.3150    -3.1790     0.3350 oh         1 9CS      -0.571800
     32 O15         -3.3280    -1.0970    -3.2120 oh         1 9CS      -0.583800
     33 N6           2.1090    -2.7600     0.3150 n8         1 9CS      -0.905800
     34 H1           2.4490    -0.8120    -1.7150 h2         1 9CS       0.072700
     35 H2           3.8610    -2.5220    -0.7470 h1         1 9CS       0.071700
     36 H3           3.5330    -1.0390     1.8910 h1         1 9CS       0.061700
     37 H4           5.9370    -1.5970     0.1120 h1         1 9CS       0.042700
     38 H5           4.4760     1.0130     0.7340 h1         1 9CS       0.070700
     39 H61          6.8500     1.3200     0.2980 h1         1 9CS       0.042700
     40 H62          6.7610     0.3530    -1.1650 h1         1 9CS       0.042700
     41 H7          -1.0480     3.0860     0.8810 h1         1 9CS       0.071700
     42 H8          -1.6670     0.9600    -1.2100 h1         1 9CS       0.068700
     43 H9          -0.0290     0.8570     1.3570 h1         1 9CS       0.053700
     44 H10          0.8700     0.5440    -1.5440 h1         1 9CS       0.063700
     45 H11          1.4510     2.6690     0.5560 h1         1 9CS       0.030700
     46 H121        -0.1550     2.8100    -2.0280 hc         1 9CS       0.051200
     47 H122         0.1990     4.1680    -0.9710 hc         1 9CS       0.051200
     48 H13         -4.0880     1.9760     0.0560 h2         1 9CS       0.098700
     49 H14         -5.7470     0.5270     1.0610 h1         1 9CS       0.037700
     50 H15         -3.4650    -1.3100     1.8760 h1         1 9CS       0.093700
     51 H16         -5.7520    -1.7400    -0.0760 h1         1 9CS       0.031700
     52 H17         -2.7900    -1.3680    -0.6940 h1         1 9CS       0.075700
     53 H181        -4.1140    -2.7650    -2.2630 h1         1 9CS       0.022700
     54 H182        -5.2500    -1.4320    -2.4810 h1         1 9CS       0.022700
     55 HN11         6.6160     2.8230    -1.4260 hn         1 9CS       0.345300
     56 HN12         5.3750     2.0450    -2.1030 hn         1 9CS       0.345300
     57 HN21         2.4940     3.7220    -1.3690 hn         1 9CS       0.358800
     58 HN22         3.2580     2.3510    -1.0110 hn         1 9CS       0.358800
     59 HN31        -2.2350     4.5010    -0.5430 hn         1 9CS       0.343300
     60 HN32        -2.5460     3.3230    -1.6050 hn         1 9CS       0.343300
     61 HN41        -5.2000    -1.3070     3.4430 hn         1 9CS       0.342800
     62 HN42        -6.3370    -1.5310     2.3190 hn         1 9CS       0.342800
     63 HO7          3.6270    -3.4340     1.7640 ho         1 9CS       0.438000
     64 HO8          6.4070    -1.3650     2.3720 ho         1 9CS       0.423000
     65 HO10        -1.1000    -1.0870     0.9030 ho         1 9CS       0.427000
     66 HO13        -4.7890     1.8940     2.5750 ho         1 9CS       0.412000
     67 HO14        -4.8190    -3.7080    -0.2880 ho         1 9CS       0.403000
     68 HO15        -3.5590    -1.4460    -4.0770 ho         1 9CS       0.404000
     69 HN61         1.3500    -2.1770     0.6470 hn         1 9CS       0.364300
     70 HN62         1.7550    -3.2490    -0.4970 hn         1 9CS       0.364300
@<TRIPOS>BOND
     1     1     2 1   
     2     1    23 1   
     3     1    26 1   
     4     1    34 1   
     5     2     3 1   
     6     2    33 1   
     7     2    35 1   
     8     3     4 1   
     9     3    24 1   
    10     3    36 1   
    11     4     5 1   
    12     4    25 1   
    13     4    37 1   
    14     5     6 1   
    15     5    23 1   
    16     5    38 1   
    17     6    19 1   
    18     6    39 1   
    19     6    40 1   
    20     7     8 1   
    21     7    12 1   
    22     7    21 1   
    23     7    41 1   
    24     8     9 1   
    25     8    28 1   
    26     8    42 1   
    27     9    10 1   
    28     9    27 1   
    29     9    43 1   
    30    10    11 1   
    31    10    26 1   
    32    10    44 1   
    33    11    12 1   
    34    11    20 1   
    35    11    45 1   
    36    12    46 1   
    37    12    47 1   
    38    13    14 1   
    39    13    28 1   
    40    13    29 1   
    41    13    48 1   
    42    14    15 1   
    43    14    30 1   
    44    14    49 1   
    45    15    16 1   
    46    15    22 1   
    47    15    50 1   
    48    16    17 1   
    49    16    31 1   
    50    16    51 1   
    51    17    18 1   
    52    17    29 1   
    53    17    52 1   
    54    18    32 1   
    55    18    53 1   
    56    18    54 1   
    57    19    55 1   
    58    19    56 1   
    59    20    57 1   
    60    20    58 1   
    61    21    59 1   
    62    21    60 1   
    63    22    61 1   
    64    22    62 1   
    65    24    63 1   
    66    25    64 1   
    67    27    65 1   
    68    30    66 1   
    69    31    67 1   
    70    32    68 1   
    71    33    69 1   
    72    33    70 1   
@<TRIPOS>SUBSTRUCTURE
     1 9CS         1 TEMP              0 ****  ****    0 ROOT
