@<TRIPOS>MOLECULE
9CS
   70    72     1     0     0
SMALL
No Charge or Current Charge


@<TRIPOS>ATOM
      1 C1           3.2380    -0.3940    -0.9550 c6         1 9CS       0.375300
      2 C2           3.7050    -1.8670    -0.6720 c6         1 9CS       0.099500
      3 C3           4.4320    -1.9170     0.6950 c6         1 9CS       0.142300
      4 C4           5.6220    -0.9200     0.7120 c6         1 9CS       0.146300
      5 C5           5.0770     0.5120     0.3980 c6         1 9CS       0.171300
      6 C6           6.2330     1.5660     0.3050 c3         1 9CS       0.159800
      7 C7          -1.2200     2.6600    -0.3330 c6         1 9CS       0.133500
      8 C8          -1.4650     1.1080    -0.1890 c6         1 9CS       0.150300
      9 C9          -0.1750     0.4380     0.3770 c6         1 9CS       0.166300
     10 C10          1.0540     0.6810    -0.5540 c6         1 9CS       0.193300
     11 C11          1.2890     2.2250    -0.7270 c6         1 9CS       0.159500
     12 C12          0.0120     2.9380    -1.2350 c6         1 9CS      -0.120400
     13 C13         -3.9160     0.9080     0.1590 c6         1 9CS       0.362300
     14 C14         -4.9810     0.6430     1.2820 c6         1 9CS       0.112300
     15 C15         -4.9960    -0.8750     1.6410 c6         1 9CS       0.165500
     16 C16         -5.2170    -1.7340     0.3680 c6         1 9CS       0.153300
     17 C17         -4.1010    -1.4070    -0.6660 c6         1 9CS       0.127300
     18 C18         -4.2790    -2.1970    -2.0030 c3         1 9CS       0.169600
     19 N1           5.8170     2.9400    -0.0860 n8         1 9CS      -1.009200
     20 N2           2.4110     2.5440    -1.6380 n8         1 9CS      -1.011200
     21 N3          -2.3640     3.4210    -0.8980 n8         1 9CS      -0.999200
     22 N4          -6.0040    -1.2220     2.6920 n8         1 9CS      -0.974200
     23 O5           4.3610     0.5170    -0.8730 os         1 9CS      -0.474000
     24 O7           4.8450    -3.2680     0.9390 oh         1 9CS      -0.675000
     25 O8           6.2930    -0.9860     1.9850 oh         1 9CS      -0.719000
     26 O9           2.2210     0.0010    -0.0110 os         1 9CS      -0.490000
     27 O10         -0.4130    -0.9670     0.6170 oh         1 9CS      -0.728000
     28 O11         -2.5760     0.7430     0.6870 os         1 9CS      -0.485000
     29 O12         -4.1220     0.0170    -0.9670 os         1 9CS      -0.464000
     30 O13         -4.7200     1.4410     2.4620 oh         1 9CS      -0.704000
     31 O14         -5.2490    -3.1150     0.7570 oh         1 9CS      -0.694000
     32 O15         -3.2930    -1.8640    -2.9990 oh         1 9CS      -0.706000
     33 N6           2.6090    -2.9010    -0.6890 n8         1 9CS      -1.016200
     34 H1           2.8290    -0.3610    -1.9770 h2         1 9CS       0.072700
     35 H2           4.4280    -2.1460    -1.4550 h1         1 9CS       0.071700
     36 H3           3.7160    -1.6080     1.4730 h1         1 9CS       0.061700
     37 H4           6.3220    -1.2030    -0.0880 h1         1 9CS       0.042700
     38 H5           4.3890     0.8260     1.1960 h1         1 9CS       0.070700
     39 H61          6.7320     1.6240     1.2830 h1         1 9CS       0.042700
     40 H62          6.9720     1.2060    -0.4250 h1         1 9CS       0.042700
     41 H7          -1.0210     3.0670     0.6720 h1         1 9CS       0.071700
     42 H8          -1.6530     0.6860    -1.1880 h1         1 9CS       0.068700
     43 H9           0.0470     0.9270     1.3370 h1         1 9CS       0.053700
     44 H10          0.8130     0.2450    -1.5350 h1         1 9CS       0.063700
     45 H11          1.5560     2.6350     0.2590 h1         1 9CS       0.030700
     46 H121        -0.2020     2.6110    -2.2620 hc         1 9CS       0.051200
     47 H122         0.1960     4.0200    -1.2840 hc         1 9CS       0.051200
     48 H13         -4.0670     1.9410    -0.1760 h2         1 9CS       0.098700
     49 H14         -5.9680     0.9080     0.8750 h1         1 9CS       0.037700
     50 H15         -4.0040    -1.1320     2.0490 h1         1 9CS       0.093700
     51 H16         -6.1870    -1.4590    -0.0730 h1         1 9CS       0.031700
     52 H17         -3.1210    -1.6720    -0.2450 h1         1 9CS       0.075700
     53 H181        -4.2310    -3.2710    -1.7800 h1         1 9CS       0.022700
     54 H182        -5.2860    -1.9910    -2.3910 h1         1 9CS       0.022700
     55 HN11         6.6560     3.5240    -0.1980 hn         1 9CS       0.400500
     56 HN12         5.4300     2.8940    -1.0360 hn         1 9CS       0.400500
     57 HN21         2.7180     3.5060    -1.4550 hn         1 9CS       0.414000
     58 HN22         3.2170     1.9760    -1.3340 hn         1 9CS       0.414000
     59 HN31        -2.1120     4.4150    -0.9440 hn         1 9CS       0.398500
     60 HN32        -2.4830     3.1600    -1.8830 hn         1 9CS       0.398500
     61 HN41        -5.8240    -0.6080     3.4960 hn         1 9CS       0.398000
     62 HN42        -6.9280    -0.9020     2.3770 hn         1 9CS       0.398000
     63 HO7          4.1380    -3.7830     0.4750 ho         1 9CS       0.477000
     64 HO8          6.2860    -1.9460     2.2220 ho         1 9CS       0.522000
     65 HO10        -1.3100    -0.9940     1.0230 ho         1 9CS       0.526000
     66 HO13        -3.7380     1.5160     2.5240 ho         1 9CS       0.511000
     67 HO14        -5.6290    -3.0770     1.6700 ho         1 9CS       0.502000
     68 HO15        -3.5370    -2.3530    -3.8190 ho         1 9CS       0.503000
     69 HN61         1.8050    -2.5080    -0.1750 hn         1 9CS       0.419500
     70 HN62         2.2390    -2.9900    -1.6440 hn         1 9CS       0.419500
@<TRIPOS>BOND
     1     1     2 1   
     2     1    23 1   
     3     1    26 1   
     4     1    34 1   
     5     2     3 1   
     6     2    33 1   
     7     2    35 1   
     8     3     4 1   
     9     3    24 1   
    10     3    36 1   
    11     4     5 1   
    12     4    25 1   
    13     4    37 1   
    14     5     6 1   
    15     5    23 1   
    16     5    38 1   
    17     6    19 1   
    18     6    39 1   
    19     6    40 1   
    20     7     8 1   
    21     7    12 1   
    22     7    21 1   
    23     7    41 1   
    24     8     9 1   
    25     8    28 1   
    26     8    42 1   
    27     9    10 1   
    28     9    27 1   
    29     9    43 1   
    30    10    11 1   
    31    10    26 1   
    32    10    44 1   
    33    11    12 1   
    34    11    20 1   
    35    11    45 1   
    36    12    46 1   
    37    12    47 1   
    38    13    14 1   
    39    13    28 1   
    40    13    29 1   
    41    13    48 1   
    42    14    15 1   
    43    14    30 1   
    44    14    49 1   
    45    15    16 1   
    46    15    22 1   
    47    15    50 1   
    48    16    17 1   
    49    16    31 1   
    50    16    51 1   
    51    17    18 1   
    52    17    29 1   
    53    17    52 1   
    54    18    32 1   
    55    18    53 1   
    56    18    54 1   
    57    19    55 1   
    58    19    56 1   
    59    20    57 1   
    60    20    58 1   
    61    21    59 1   
    62    21    60 1   
    63    22    61 1   
    64    22    62 1   
    65    24    63 1   
    66    25    64 1   
    67    27    65 1   
    68    30    66 1   
    69    31    67 1   
    70    32    68 1   
    71    33    69 1   
    72    33    70 1   
@<TRIPOS>SUBSTRUCTURE
     1 9CS         1 TEMP              0 ****  ****    0 ROOT
