@<TRIPOS>MOLECULE
9CT
   57    59     1     0     0
SMALL
No Charge or Current Charge


@<TRIPOS>ATOM
      1 C1           4.8080     4.5490     1.0460 c3         1 9CT      -0.077100
      2 C2           4.9340     3.9310    -0.3640 c3         1 9CT      -0.159400
      3 C3           5.8640     2.7100    -0.3710 c          1 9CT       0.608100
      4 C11          7.0120    -0.1430    -0.8740 ca         1 9CT      -0.135000
      5 C12          3.2610    -0.6690    -0.0960 c          1 9CT       0.638700
      6 C15          1.2240    -1.8400     0.7890 cc         1 9CT      -0.003400
      7 C18         -0.9640    -1.5170     1.1020 cd         1 9CT       0.268300
      8 C19         -2.3300    -0.8840     1.1140 c3         1 9CT      -0.100700
      9 C20         -3.0610    -1.0320    -0.2370 c3         1 9CT      -0.031100
     10 C21         -4.4340    -0.3740    -0.2210 ca         1 9CT      -0.010300
     11 C22         -4.5810     0.9740    -0.5910 ca         1 9CT      -0.181500
     12 C23         -5.8410     1.5890    -0.5730 ca         1 9CT       0.176100
     13 C25         -7.1520     3.6450    -0.9670 c3         1 9CT       0.150400
     14 C26         -6.9770     0.8500    -0.1790 ca         1 9CT      -0.288000
     15 C27         -6.8350    -0.5020     0.1950 ca         1 9CT       0.176100
     16 C29         -9.2480    -0.7650     0.6530 c3         1 9CT       0.150400
     17 C30         -5.5680    -1.1040     0.1720 ca         1 9CT      -0.181500
     18 O4           7.0800     2.8330    -0.2860 o          1 9CT      -0.577100
     19 N5           5.2040     1.4960    -0.4930 ns         1 9CT      -0.167000
     20 C6           5.6590     0.1510    -0.5860 ca         1 9CT       0.043000
     21 C7           4.7370    -0.9210    -0.3910 ca         1 9CT      -0.214600
     22 C8           5.2180    -2.2540    -0.4820 ca         1 9CT      -0.068000
     23 C9           6.5660    -2.5200    -0.7570 ca         1 9CT      -0.143000
     24 C10          7.4630    -1.4670    -0.9550 ca         1 9CT      -0.060000
     25 O13          2.7090     0.3900    -0.3680 o          1 9CT      -0.594100
     26 N14          2.5740    -1.7320     0.4670 ns         1 9CT      -0.391100
     27 N16          0.5880    -2.9330     1.3680 na         1 9CT      -0.043200
     28 N17         -0.7730    -2.7400     1.5650 nc         1 9CT      -0.521800
     29 O24         -5.9120     2.9150    -0.9490 os         1 9CT      -0.342600
     30 O28         -7.9050    -1.2780     0.5920 os         1 9CT      -0.342600
     31 C31          0.2230    -0.9300     0.6190 cd         1 9CT      -0.227000
     32 H1           4.3960     3.8200     1.7540 hc         1 9CT       0.043700
     33 H2           5.7870     4.8770     1.4180 hc         1 9CT       0.043700
     34 H3           4.1420     5.4200     1.0250 hc         1 9CT       0.043700
     35 H4           3.9320     3.6450    -0.7050 hc         1 9CT       0.063700
     36 H5           5.3490     4.6920    -1.0360 hc         1 9CT       0.063700
     37 H6           7.7350     0.6470    -1.0530 ha         1 9CT       0.147000
     38 H7          -2.9460    -1.3260     1.9060 hc         1 9CT       0.057200
     39 H8          -2.2360     0.1820     1.3540 hc         1 9CT       0.057200
     40 H9          -2.4430    -0.5940    -1.0310 hc         1 9CT       0.059200
     41 H10         -3.1560    -2.0980    -0.4780 hc         1 9CT       0.059200
     42 H11         -3.7120     1.5530    -0.8930 ha         1 9CT       0.129500
     43 H12         -6.9790     4.6770    -1.2950 h1         1 9CT       0.039033
     44 H13         -7.8660     3.1830    -1.6600 h1         1 9CT       0.039033
     45 H14         -7.6000     3.6770     0.0340 h1         1 9CT       0.039033
     46 H15         -7.9530     1.3200    -0.1640 ha         1 9CT       0.119000
     47 H16         -9.3130     0.0740     1.3580 h1         1 9CT       0.039033
     48 H17         -9.5800    -0.4220    -0.3350 h1         1 9CT       0.039033
     49 H18         -9.9380    -1.5470     0.9920 h1         1 9CT       0.039033
     50 H19         -5.4700    -2.1460     0.4660 ha         1 9CT       0.129500
     51 H20          4.1950     1.5800    -0.5200 hn         1 9CT       0.185000
     52 H21          4.5530    -3.1070    -0.3650 ha         1 9CT       0.110000
     53 H22          6.9140    -3.5490    -0.8280 ha         1 9CT       0.121000
     54 H23          8.5080    -1.6750    -1.1780 ha         1 9CT       0.120000
     55 H24          3.1660    -2.5260     0.6680 hn         1 9CT       0.327500
     56 H25          1.0350    -3.8080     1.6360 hn         1 9CT       0.366000
     57 H26          0.3010     0.0620     0.1920 ha         1 9CT       0.167000
@<TRIPOS>BOND
     1     1     2 1   
     2     1    32 1   
     3     1    33 1   
     4     1    34 1   
     5     2     3 1   
     6     2    35 1   
     7     2    36 1   
     8     3    18 2   
     9     3    19 1   
    10     4    20 ar  
    11     4    24 ar  
    12     4    37 1   
    13     5    21 1   
    14     5    25 2   
    15     5    26 1   
    16     6    26 1   
    17     6    27 1   
    18     6    31 2   
    19     7     8 1   
    20     7    28 2   
    21     7    31 1   
    22     8     9 1   
    23     8    38 1   
    24     8    39 1   
    25     9    10 1   
    26     9    40 1   
    27     9    41 1   
    28    10    11 ar  
    29    10    17 ar  
    30    11    12 ar  
    31    11    42 1   
    32    12    14 ar  
    33    12    29 1   
    34    13    29 1   
    35    13    43 1   
    36    13    44 1   
    37    13    45 1   
    38    14    15 ar  
    39    14    46 1   
    40    15    17 ar  
    41    15    30 1   
    42    16    30 1   
    43    16    47 1   
    44    16    48 1   
    45    16    49 1   
    46    17    50 1   
    47    19    20 1   
    48    19    51 1   
    49    20    21 ar  
    50    21    22 ar  
    51    22    23 ar  
    52    22    52 1   
    53    23    24 ar  
    54    23    53 1   
    55    24    54 1   
    56    26    55 1   
    57    27    28 1   
    58    27    56 1   
    59    31    57 1   
@<TRIPOS>SUBSTRUCTURE
     1 9CT         1 TEMP              0 ****  ****    0 ROOT
