@<TRIPOS>MOLECULE
9CT
   57    59     1     0     0
SMALL
abcg2


@<TRIPOS>ATOM
      1 C1           6.2590     4.4670     2.2520 c3         1 9CT      -0.077100
      2 C2           5.4220     3.5580     1.3720 c3         1 9CT      -0.159400
      3 C3           6.1340     2.2840     0.9700 c          1 9CT       0.608100
      4 C11          7.0820    -0.0830    -0.6590 ca         1 9CT      -0.135000
      5 C12          3.3050    -0.3360    -0.4910 c          1 9CT       0.638700
      6 C15          1.1610    -1.3370     0.0610 cc         1 9CT      -0.003400
      7 C18         -1.0080    -0.9920     0.2080 cd         1 9CT       0.268300
      8 C19         -2.3720    -0.3790     0.2000 c3         1 9CT      -0.100700
      9 C20         -3.4750    -1.3570    -0.2130 c3         1 9CT      -0.031100
     10 C21         -4.8260    -0.6970    -0.2130 ca         1 9CT      -0.010300
     11 C22         -5.2370     0.0420    -1.3170 ca         1 9CT      -0.181500
     12 C23         -6.4720     0.6830    -1.3040 ca         1 9CT       0.176100
     13 C25         -8.0420     2.0310    -2.4790 c3         1 9CT       0.150400
     14 C26         -7.3080     0.5930    -0.1910 ca         1 9CT      -0.288000
     15 C27         -6.8850    -0.1480     0.9110 ca         1 9CT       0.176100
     16 C29         -8.8890     0.3210     2.1020 c3         1 9CT       0.150400
     17 C30         -5.6490    -0.7910     0.9010 ca         1 9CT      -0.181500
     18 O4           7.2310     1.9750     1.3910 o          1 9CT      -0.577100
     19 N5           5.4130     1.5200     0.0980 ns         1 9CT      -0.167000
     20 C6           5.7530     0.2690    -0.4150 ca         1 9CT       0.043000
     21 C7           4.7400    -0.6640    -0.7110 ca         1 9CT      -0.214600
     22 C8           5.0840    -1.8970    -1.2680 ca         1 9CT      -0.068000
     23 C9           6.4030    -2.2340    -1.5090 ca         1 9CT      -0.143000
     24 C10          7.3980    -1.3200    -1.1950 ca         1 9CT      -0.060000
     25 O13          2.8500     0.7860    -0.6480 o          1 9CT      -0.594100
     26 N14          2.5330    -1.3820    -0.1030 ns         1 9CT      -0.391100
     27 N16          0.5020    -2.4420     0.4570 na         1 9CT      -0.043200
     28 N17         -0.8160    -2.2510     0.5500 nc         1 9CT      -0.521800
     29 O24         -6.7920     1.3750    -2.4150 os         1 9CT      -0.342600
     30 O28         -7.6200    -0.2970     2.0300 os         1 9CT      -0.342600
     31 C31          0.2080    -0.3540    -0.1130 cd         1 9CT      -0.227000
     32 H1           6.5290     3.9840     3.1900 hc         1 9CT       0.043700
     33 H2           7.1780     4.7720     1.7540 hc         1 9CT       0.043700
     34 H3           5.6970     5.3690     2.4930 hc         1 9CT       0.043700
     35 H4           4.4940     3.2820     1.8830 hc         1 9CT       0.063700
     36 H5           5.1110     4.0820     0.4640 hc         1 9CT       0.063700
     37 H6           7.8750     0.6180    -0.4520 ha         1 9CT       0.147000
     38 H7          -2.6030     0.0240     1.1910 hc         1 9CT       0.057200
     39 H8          -2.3680     0.4780    -0.4780 hc         1 9CT       0.057200
     40 H9          -3.2510    -1.7510    -1.2070 hc         1 9CT       0.059200
     41 H10         -3.4780    -2.2090     0.4700 hc         1 9CT       0.059200
     42 H11         -4.6020     0.1190    -2.1920 ha         1 9CT       0.129500
     43 H12         -8.0880     2.5120    -3.4530 h1         1 9CT       0.039033
     44 H13         -8.8770     1.3300    -2.3950 h1         1 9CT       0.039033
     45 H14         -8.1460     2.7960    -1.7050 h1         1 9CT       0.039033
     46 H15         -8.2680     1.0890    -0.1840 ha         1 9CT       0.119000
     47 H16         -8.8210     1.4090     2.0160 h1         1 9CT       0.039033
     48 H17         -9.5700    -0.0520     1.3320 h1         1 9CT       0.039033
     49 H18         -9.2980     0.0740     3.0790 h1         1 9CT       0.039033
     50 H19         -5.3390    -1.3670     1.7650 ha         1 9CT       0.129500
     51 H20          4.4750     1.8310    -0.1160 hn         1 9CT       0.185000
     52 H21          4.3080    -2.5990    -1.5420 ha         1 9CT       0.110000
     53 H22          6.6500    -3.1910    -1.9470 ha         1 9CT       0.121000
     54 H23          8.4360    -1.5620    -1.3830 ha         1 9CT       0.120000
     55 H24          2.9890    -2.2530     0.1250 hn         1 9CT       0.327500
     56 H25          0.8920    -3.3490     0.6570 hn         1 9CT       0.366000
     57 H26          0.3500     0.6640    -0.4230 ha         1 9CT       0.167000
@<TRIPOS>BOND
     1     1     2 1   
     2     1    32 1   
     3     1    33 1   
     4     1    34 1   
     5     2     3 1   
     6     2    35 1   
     7     2    36 1   
     8     3    18 2   
     9     3    19 1   
    10     4    20 ar  
    11     4    24 ar  
    12     4    37 1   
    13     5    21 1   
    14     5    25 2   
    15     5    26 1   
    16     6    26 1   
    17     6    27 1   
    18     6    31 2   
    19     7     8 1   
    20     7    28 2   
    21     7    31 1   
    22     8     9 1   
    23     8    38 1   
    24     8    39 1   
    25     9    10 1   
    26     9    40 1   
    27     9    41 1   
    28    10    11 ar  
    29    10    17 ar  
    30    11    12 ar  
    31    11    42 1   
    32    12    14 ar  
    33    12    29 1   
    34    13    29 1   
    35    13    43 1   
    36    13    44 1   
    37    13    45 1   
    38    14    15 ar  
    39    14    46 1   
    40    15    17 ar  
    41    15    30 1   
    42    16    30 1   
    43    16    47 1   
    44    16    48 1   
    45    16    49 1   
    46    17    50 1   
    47    19    20 1   
    48    19    51 1   
    49    20    21 ar  
    50    21    22 ar  
    51    22    23 ar  
    52    22    52 1   
    53    23    24 ar  
    54    23    53 1   
    55    24    54 1   
    56    26    55 1   
    57    27    28 1   
    58    27    56 1   
    59    31    57 1   
@<TRIPOS>SUBSTRUCTURE
     1 9CT         1 TEMP              0 ****  ****    0 ROOT
