@<TRIPOS>MOLECULE
9CU
   41    43     1     0     0
SMALL
No Charge or Current Charge


@<TRIPOS>ATOM
      1 C16         -4.1060     0.7330     2.6450 c3         1 9CU      -0.087100
      2 C7          -0.3070    -0.7030    -0.3840 c6         1 9CU       0.196300
      3 C6           0.8820    -1.6650    -0.5410 c6         1 9CU      -0.080100
      4 C9           2.2780     0.4260    -0.3110 ca         1 9CU      -0.355600
      5 C2           4.5190     0.3410     0.6470 ca         1 9CU      -0.287000
      6 C14         -5.4010    -0.1370    -0.9680 c6         1 9CU      -0.072400
      7 C15         -4.1650    -0.9960    -1.3340 c6         1 9CU      -0.108400
      8 C8           1.1470     1.1910    -0.9530 c          1 9CU       0.705700
      9 C5           2.1600    -0.9650    -0.1200 ca         1 9CU       0.041700
     10 C4           3.2170    -1.6920     0.4520 ca         1 9CU      -0.201000
     11 C12         -4.1290     0.6250     1.1020 c6         1 9CU       0.173300
     12 C3           4.3910    -1.0380     0.8380 ca         1 9CU       0.221100
     13 C10         -1.6320    -1.2870    -0.9410 c3         1 9CU      -0.067400
     14 C1           3.4720     1.0680     0.0700 ca         1 9CU       0.274100
     15 C13         -5.4760     0.0780     0.5640 c6         1 9CU      -0.109400
     16 O5          -3.0560    -0.2620     0.7220 os         1 9CU      -0.467000
     17 C11         -2.8800    -0.3950    -0.7070 c6         1 9CU       0.174300
     18 O3          -0.0500     0.5340    -1.0750 os         1 9CU      -0.431100
     19 O4           1.2930     2.3360    -1.3570 o          1 9CU      -0.560000
     20 O2           5.4080    -1.7480     1.3940 oh         1 9CU      -0.524100
     21 O1           3.6410     2.4020    -0.1160 oh         1 9CU      -0.538100
     22 H1          -4.2720    -0.2440     3.1150 hc         1 9CU       0.043033
     23 H2          -3.1430     1.1190     2.9970 hc         1 9CU       0.043033
     24 H3          -4.8880     1.4140     3.0010 hc         1 9CU       0.043033
     25 H4          -0.4360    -0.4820     0.6860 h1         1 9CU       0.077700
     26 H5           0.7160    -2.5630     0.0690 hc         1 9CU       0.072200
     27 H6           0.9690    -1.9980    -1.5840 hc         1 9CU       0.072200
     28 H7           5.4300     0.8570     0.9370 ha         1 9CU       0.135000
     29 H8          -5.3360     0.8360    -1.4750 hc         1 9CU       0.043200
     30 H9          -6.3190    -0.6200    -1.3290 hc         1 9CU       0.043200
     31 H10         -4.3100    -2.0250    -0.9740 hc         1 9CU       0.048200
     32 H11         -4.0610    -1.0550    -2.4260 hc         1 9CU       0.048200
     33 H12          3.1270    -2.7650     0.5990 ha         1 9CU       0.135000
     34 H13         -3.9350     1.6210     0.6770 h1         1 9CU       0.034700
     35 H14         -1.5190    -1.4700    -2.0170 hc         1 9CU       0.059700
     36 H15         -1.8090    -2.2710    -0.4890 hc         1 9CU       0.059700
     37 H16         -6.2900     0.7760     0.8050 hc         1 9CU       0.048700
     38 H17         -5.7170    -0.8720     1.0600 hc         1 9CU       0.048700
     39 H18         -2.6930     0.6000    -1.1390 h1         1 9CU       0.052700
     40 H19          6.1380    -1.1250     1.5940 ho         1 9CU       0.475000
     41 H20          2.8460     2.7110    -0.6150 ho         1 9CU       0.520000
@<TRIPOS>BOND
     1     1    11 1   
     2     1    22 1   
     3     1    23 1   
     4     1    24 1   
     5     2     3 1   
     6     2    13 1   
     7     2    18 1   
     8     2    25 1   
     9     3     9 1   
    10     3    26 1   
    11     3    27 1   
    12     4     8 1   
    13     4     9 ar  
    14     4    14 ar  
    15     5    12 ar  
    16     5    14 ar  
    17     5    28 1   
    18     6     7 1   
    19     6    15 1   
    20     6    29 1   
    21     6    30 1   
    22     7    17 1   
    23     7    31 1   
    24     7    32 1   
    25     8    18 1   
    26     8    19 2   
    27     9    10 ar  
    28    10    12 ar  
    29    10    33 1   
    30    11    15 1   
    31    11    16 1   
    32    11    34 1   
    33    12    20 1   
    34    13    17 1   
    35    13    35 1   
    36    13    36 1   
    37    14    21 1   
    38    15    37 1   
    39    15    38 1   
    40    16    17 1   
    41    17    39 1   
    42    20    40 1   
    43    21    41 1   
@<TRIPOS>SUBSTRUCTURE
     1 9CU         1 TEMP              0 ****  ****    0 ROOT
