@<TRIPOS>MOLECULE
9CU
   41    43     1     0     0
SMALL
bcc


@<TRIPOS>ATOM
      1 C16         -4.0590     0.8050     2.5590 c3         1 9CU      -0.087100
      2 C7          -0.3320    -0.7350    -0.3250 c6         1 9CU       0.173100
      3 C6           0.8500    -1.6550    -0.5420 c6         1 9CU      -0.080100
      4 C9           2.1890     0.4070    -0.2440 ca         1 9CU      -0.355600
      5 C2           4.4560     0.3540     0.6080 ca         1 9CU      -0.305000
      6 C14         -5.3170    -0.1760    -0.9670 c6         1 9CU      -0.072400
      7 C15         -4.0980    -1.0310    -1.2960 c6         1 9CU      -0.108400
      8 C8           1.0650     1.1580    -0.7790 c          1 9CU       0.781200
      9 C5           2.1140    -0.9870    -0.0980 ca         1 9CU       0.041700
     10 C4           3.1790    -1.7010     0.3990 ca         1 9CU      -0.219000
     11 C12         -4.0660     0.6290     1.0550 c6         1 9CU       0.150100
     12 C3           4.3510    -1.0220     0.7590 ca         1 9CU       0.221100
     13 C10         -1.6190    -1.2870    -0.9040 c3         1 9CU      -0.067400
     14 C1           3.3840     1.0760     0.0950 ca         1 9CU       0.274100
     15 C13         -5.3930     0.0930     0.5320 c6         1 9CU      -0.109400
     16 O5          -3.0070    -0.2510     0.7150 os         1 9CU      -0.420600
     17 C11         -2.8470    -0.4200    -0.6790 c6         1 9CU       0.151100
     18 O3          -0.0900     0.5410    -0.9580 os         1 9CU      -0.407900
     19 O4           1.1370     2.3410    -1.0850 o          1 9CU      -0.635500
     20 O2           5.3530    -1.7600     1.2460 oh         1 9CU      -0.485100
     21 O1           3.5270     2.3890    -0.0570 oh         1 9CU      -0.499100
     22 H1          -4.2680    -0.1380     3.0680 hc         1 9CU       0.043033
     23 H2          -3.0970     1.1810     2.9110 hc         1 9CU       0.043033
     24 H3          -4.8260     1.5210     2.8540 hc         1 9CU       0.043033
     25 H4          -0.4510    -0.5490     0.7470 h1         1 9CU       0.077700
     26 H5           0.6870    -2.5830     0.0090 hc         1 9CU       0.072200
     27 H6           0.9310    -1.9240    -1.6010 hc         1 9CU       0.072200
     28 H7           5.3670     0.8760     0.8800 ha         1 9CU       0.153000
     29 H8          -5.2470     0.7750    -1.5040 hc         1 9CU       0.043200
     30 H9          -6.2310    -0.6610    -1.3160 hc         1 9CU       0.043200
     31 H10         -4.2350    -2.0470    -0.9100 hc         1 9CU       0.048200
     32 H11         -3.9700    -1.1130    -2.3780 hc         1 9CU       0.048200
     33 H12          3.1200    -2.7750     0.5160 ha         1 9CU       0.153000
     34 H13         -3.8790     1.6070     0.5810 h1         1 9CU       0.034700
     35 H14         -1.4920    -1.4500    -1.9780 hc         1 9CU       0.059700
     36 H15         -1.7880    -2.2710    -0.4560 hc         1 9CU       0.059700
     37 H16         -6.1860     0.8120     0.7550 hc         1 9CU       0.048700
     38 H17         -5.6410    -0.8310     1.0650 hc         1 9CU       0.048700
     39 H18         -2.6880     0.5660    -1.1470 h1         1 9CU       0.052700
     40 H19          6.1140    -1.2080     1.4620 ho         1 9CU       0.436000
     41 H20          2.7080     2.7340    -0.4750 ho         1 9CU       0.481000
@<TRIPOS>BOND
     1     1    11 1   
     2     1    22 1   
     3     1    23 1   
     4     1    24 1   
     5     2     3 1   
     6     2    13 1   
     7     2    18 1   
     8     2    25 1   
     9     3     9 1   
    10     3    26 1   
    11     3    27 1   
    12     4     8 1   
    13     4     9 ar  
    14     4    14 ar  
    15     5    12 ar  
    16     5    14 ar  
    17     5    28 1   
    18     6     7 1   
    19     6    15 1   
    20     6    29 1   
    21     6    30 1   
    22     7    17 1   
    23     7    31 1   
    24     7    32 1   
    25     8    18 1   
    26     8    19 2   
    27     9    10 ar  
    28    10    12 ar  
    29    10    33 1   
    30    11    15 1   
    31    11    16 1   
    32    11    34 1   
    33    12    20 1   
    34    13    17 1   
    35    13    35 1   
    36    13    36 1   
    37    14    21 1   
    38    15    37 1   
    39    15    38 1   
    40    16    17 1   
    41    17    39 1   
    42    20    40 1   
    43    21    41 1   
@<TRIPOS>SUBSTRUCTURE
     1 9CU         1 TEMP              0 ****  ****    0 ROOT
