@<TRIPOS>MOLECULE
9CV
   70    74     1     0     0
SMALL
abcg2


@<TRIPOS>ATOM
      1 F          -14.3790     1.9340    26.2190 f          1 9CV      -0.165000
      2 C21        -14.0170     2.9940    25.4810 ca         1 9CV       0.150000
      3 C20        -14.9410     3.6320    24.6880 ca         1 9CV      -0.118000
      4 C19        -14.5460     4.7280    23.9280 ca         1 9CV      -0.101000
      5 C22        -12.6950     3.4270    25.5480 ca         1 9CV       0.099100
      6 O1         -11.8700     2.7400    26.3780 os         1 9CV      -0.236200
      7 C24        -10.5150     2.9580    26.2840 ca         1 9CV       0.092100
      8 C29         -9.8040     2.4630    25.1990 ca         1 9CV      -0.117500
      9 C28         -8.4330     2.6710    25.1380 ca         1 9CV      -0.102500
     10 C27         -7.7820     3.3640    26.1520 ca         1 9CV      -0.110000
     11 C26         -8.5050     3.8400    27.2350 ca         1 9CV      -0.102500
     12 C25         -9.8790     3.6470    27.3040 ca         1 9CV      -0.117500
     13 C23        -12.3160     4.5240    24.7910 ca         1 9CV      -0.155000
     14 C18        -13.2340     5.1760    23.9710 ca         1 9CV      -0.107300
     15 C17        -12.7810     6.3350    23.1070 c3         1 9CV       0.240100
     16 N5         -11.7820     7.1860    23.7070 nu         1 9CV      -0.923200
     17 C4         -12.0710     7.8650    24.8770 ca         1 9CV       0.187000
     18 C3         -13.3480     8.0870    25.3410 ca         1 9CV      -0.062000
     19 C5         -10.9970     8.3840    25.6600 ca         1 9CV       0.575900
     20 N1         -11.1990     9.0050    26.8060 nb         1 9CV      -0.734000
     21 C6         -12.4430     9.2060    27.2360 ca         1 9CV       0.364900
     22 C2         -13.5580     8.8000    26.5300 ca         1 9CV      -0.213600
     23 C1         -14.9570     9.0210    26.9870 c          1 9CV       0.619700
     24 O          -15.8810     8.3360    26.5610 o          1 9CV      -0.607100
     25 N          -15.1530    10.0040    27.8800 ns         1 9CV      -0.504900
     26 C          -16.4660    10.3290    28.3840 c3         1 9CV       0.095300
     27 N2          -9.7160     8.1770    25.2280 nu         1 9CV      -0.929100
     28 C7          -8.5630     8.5780    26.0120 c6         1 9CV       0.233500
     29 C11         -8.3740     7.6750    27.2310 c6         1 9CV      -0.121900
     30 C10         -7.0790     8.0310    27.9540 c6         1 9CV       0.208800
     31 N3          -5.9380     7.9060    27.0640 nh         1 9CV      -0.756300
     32 C9          -6.0610     8.8100    25.9330 c6         1 9CV       0.208800
     33 C8          -7.3220     8.5210    25.1240 c6         1 9CV      -0.121900
     34 C12         -5.2960     6.7020    26.9080 ca         1 9CV       0.608900
     35 N4          -4.5950     6.5270    25.7880 nb         1 9CV      -0.751000
     36 C16         -3.9090     5.4030    25.6150 ca         1 9CV       0.381900
     37 C15         -3.8710     4.3700    26.5300 ca         1 9CV      -0.221000
     38 C14         -4.6030     4.5440    27.7020 ca         1 9CV      -0.044000
     39 C13         -5.3200     5.7030    27.9050 ca         1 9CV      -0.223000
     40 H1         -15.9630     3.2780    24.6630 ha         1 9CV       0.137000
     41 H2         -15.2730     5.2330    23.3050 ha         1 9CV       0.122000
     42 H3         -10.3150     1.9240    24.4110 ha         1 9CV       0.130000
     43 H4          -7.8750     2.2890    24.2940 ha         1 9CV       0.116500
     44 H5          -6.7130     3.5300    26.1000 ha         1 9CV       0.122000
     45 H6          -8.0010     4.3710    28.0320 ha         1 9CV       0.116500
     46 H7         -10.4500     4.0270    28.1410 ha         1 9CV       0.130000
     47 H8         -11.2940     4.8750    24.8430 ha         1 9CV       0.125000
     48 H9         -13.6460     6.9310    22.8050 h1         1 9CV       0.064200
     49 H10        -12.3510     5.9480    22.1820 h1         1 9CV       0.064200
     50 H11        -10.8620     6.7710    23.6970 hn         1 9CV       0.458000
     51 H12        -14.2070     7.7040    24.8060 ha         1 9CV       0.145000
     52 H13        -12.5250     9.7000    28.1980 h4         1 9CV       0.014100
     53 H14        -14.4000    10.6330    28.1010 hn         1 9CV       0.314500
     54 H15        -16.3580    11.0820    29.1590 h1         1 9CV       0.040367
     55 H16        -17.1180    10.7270    27.6040 h1         1 9CV       0.040367
     56 H17        -16.9500     9.4560    28.8190 h1         1 9CV       0.040367
     57 H18         -9.5860     8.2480    24.2290 hn         1 9CV       0.480000
     58 H19         -8.6870     9.6100    26.3680 h1         1 9CV       0.053700
     59 H20         -9.2180     7.7750    27.9130 hc         1 9CV       0.059700
     60 H21         -8.3420     6.6330    26.9010 hc         1 9CV       0.059700
     61 H22         -6.9550     7.4240    28.8480 h1         1 9CV       0.062700
     62 H23         -7.1180     9.0670    28.3030 h1         1 9CV       0.062700
     63 H24         -5.1790     8.7410    25.3040 h1         1 9CV       0.062700
     64 H25         -6.1030     9.8290    26.3290 h1         1 9CV       0.062700
     65 H26         -7.4060     9.2480    24.3120 hc         1 9CV       0.059700
     66 H27         -7.2410     7.5290    24.6660 hc         1 9CV       0.059700
     67 H28         -3.3570     5.3270    24.6830 h4         1 9CV       0.014100
     68 H29         -3.2980     3.4730    26.3380 ha         1 9CV       0.126000
     69 H30         -4.6160     3.7730    28.4630 ha         1 9CV       0.116000
     70 H31         -5.8720     5.8240    28.8240 ha         1 9CV       0.122000
@<TRIPOS>BOND
     1     1     2 1   
     2     2     3 ar  
     3     2     5 ar  
     4     3     4 ar  
     5     3    40 1   
     6     4    14 ar  
     7     4    41 1   
     8     5     6 1   
     9     5    13 ar  
    10     6     7 1   
    11     7     8 ar  
    12     7    12 ar  
    13     8     9 ar  
    14     8    42 1   
    15     9    10 ar  
    16     9    43 1   
    17    10    11 ar  
    18    10    44 1   
    19    11    12 ar  
    20    11    45 1   
    21    12    46 1   
    22    13    14 ar  
    23    13    47 1   
    24    14    15 1   
    25    15    16 1   
    26    15    48 1   
    27    15    49 1   
    28    16    17 1   
    29    16    50 1   
    30    17    18 ar  
    31    17    19 ar  
    32    18    22 ar  
    33    18    51 1   
    34    19    20 ar  
    35    19    27 1   
    36    20    21 ar  
    37    21    22 ar  
    38    21    52 1   
    39    22    23 1   
    40    23    24 2   
    41    23    25 1   
    42    25    26 1   
    43    25    53 1   
    44    26    54 1   
    45    26    55 1   
    46    26    56 1   
    47    27    28 1   
    48    27    57 1   
    49    28    29 1   
    50    28    33 1   
    51    28    58 1   
    52    29    30 1   
    53    29    59 1   
    54    29    60 1   
    55    30    31 1   
    56    30    61 1   
    57    30    62 1   
    58    31    32 1   
    59    31    34 1   
    60    32    33 1   
    61    32    63 1   
    62    32    64 1   
    63    33    65 1   
    64    33    66 1   
    65    34    35 ar  
    66    34    39 ar  
    67    35    36 ar  
    68    36    37 ar  
    69    36    67 1   
    70    37    38 ar  
    71    37    68 1   
    72    38    39 ar  
    73    38    69 1   
    74    39    70 1   
@<TRIPOS>SUBSTRUCTURE
     1 9CV         1 TEMP              0 ****  ****    0 ROOT
