@<TRIPOS>MOLECULE
9CV
   70    74     1     0     0
SMALL
No Charge or Current Charge


@<TRIPOS>ATOM
      1 F          -13.7160     2.5290    27.2240 f          1 9CV      -0.165000
      2 C21        -13.5530     3.4120    26.2110 ca         1 9CV       0.150000
      3 C20        -14.6730     3.8200    25.4700 ca         1 9CV      -0.118000
      4 C19        -14.5210     4.7390    24.4180 ca         1 9CV      -0.101000
      5 C22        -12.2730     3.9130    25.9030 ca         1 9CV       0.099100
      6 O1         -11.1930     3.5140    26.6660 os         1 9CV      -0.236200
      7 C24         -9.9180     3.3280    26.1740 ca         1 9CV       0.092100
      8 C29         -9.6860     2.9100    24.8460 ca         1 9CV      -0.117500
      9 C28         -8.3690     2.7250    24.3890 ca         1 9CV      -0.102500
     10 C27         -7.2840     2.9400    25.2570 ca         1 9CV      -0.110000
     11 C26         -7.5160     3.3270    26.5880 ca         1 9CV      -0.102500
     12 C25         -8.8320     3.5150    27.0450 ca         1 9CV      -0.117500
     13 C23        -12.1280     4.8490    24.8560 ca         1 9CV      -0.155000
     14 C18        -13.2500     5.2620    24.1030 ca         1 9CV      -0.107300
     15 C17        -13.1080     6.2590    22.9510 c3         1 9CV       0.240100
     16 N5         -12.3090     7.4360    23.3410 nu         1 9CV      -0.923200
     17 C4         -12.4540     8.1900    24.5410 ca         1 9CV       0.187000
     18 C3         -13.7420     8.4420    25.0470 ca         1 9CV      -0.062000
     19 C5         -11.3460     8.7110    25.2970 ca         1 9CV       0.575900
     20 N1         -11.4800     9.4290    26.4260 nb         1 9CV      -0.734000
     21 C6         -12.7290     9.6600    26.8800 ca         1 9CV       0.364900
     22 C2         -13.8900     9.1900    26.2370 ca         1 9CV      -0.213600
     23 C1         -15.2610     9.4700    26.7890 c          1 9CV       0.619700
     24 O          -16.2740     9.0730    26.2310 o          1 9CV      -0.607100
     25 N          -15.3330    10.1970    27.9580 ns         1 9CV      -0.504900
     26 C          -16.5860    10.5560    28.6270 c3         1 9CV       0.095300
     27 N2         -10.0200     8.4840    24.9200 nu         1 9CV      -0.929100
     28 C7          -8.8830     8.3970    25.8480 c6         1 9CV       0.233500
     29 C11         -8.9760     7.0980    26.6780 c6         1 9CV      -0.121900
     30 C10         -7.7440     6.9430    27.5950 c6         1 9CV       0.208800
     31 N3          -6.4850     7.0020    26.8040 nh         1 9CV      -0.756300
     32 C9          -6.3470     8.2290    25.9670 c6         1 9CV       0.208800
     33 C8          -7.5700     8.3990    25.0370 c6         1 9CV      -0.121900
     34 C12         -5.3620     6.2320    27.1590 ca         1 9CV       0.608900
     35 N4          -4.4970     5.9990    26.1540 nb         1 9CV      -0.751000
     36 C16         -3.4080     5.2470    26.4170 ca         1 9CV       0.381900
     37 C15         -3.1400     4.7040    27.6830 ca         1 9CV      -0.221000
     38 C14         -4.0330     4.9480    28.7340 ca         1 9CV      -0.044000
     39 C13         -5.1650     5.7290    28.4600 ca         1 9CV      -0.223000
     40 H1         -15.6560     3.4240    25.7130 ha         1 9CV       0.137000
     41 H2         -15.3960     5.0470    23.8480 ha         1 9CV       0.122000
     42 H3         -10.5170     2.7250    24.1710 ha         1 9CV       0.130000
     43 H4          -8.1890     2.4120    23.3620 ha         1 9CV       0.116500
     44 H5          -6.2660     2.7980    24.9030 ha         1 9CV       0.122000
     45 H6          -6.6770     3.4800    27.2630 ha         1 9CV       0.116500
     46 H7          -9.0130     3.8110    28.0760 ha         1 9CV       0.130000
     47 H8         -11.1480     5.2610    24.6300 ha         1 9CV       0.125000
     48 H9         -14.1080     6.5840    22.6310 h1         1 9CV       0.064200
     49 H10        -12.6450     5.7540    22.0920 h1         1 9CV       0.064200
     50 H11        -11.4660     7.6040    22.7900 hn         1 9CV       0.458000
     51 H12        -14.6140     8.0680    24.5170 ha         1 9CV       0.145000
     52 H13        -12.7840    10.2430    27.7970 h4         1 9CV       0.014100
     53 H14        -14.4620    10.4990    28.3760 hn         1 9CV       0.314500
     54 H15        -16.3650    11.1330    29.5340 h1         1 9CV       0.040367
     55 H16        -17.2050    11.1630    27.9540 h1         1 9CV       0.040367
     56 H17        -17.1330     9.6450    28.9030 h1         1 9CV       0.040367
     57 H18         -9.9540     7.9120    24.0870 hn         1 9CV       0.480000
     58 H19         -8.8660     9.2630    26.5290 h1         1 9CV       0.053700
     59 H20         -9.8880     7.0950    27.2880 hc         1 9CV       0.059700
     60 H21         -9.0400     6.2300    26.0080 hc         1 9CV       0.059700
     61 H22         -7.8310     5.9820    28.1220 h1         1 9CV       0.062700
     62 H23         -7.7510     7.7370    28.3580 h1         1 9CV       0.062700
     63 H24         -5.4420     8.2000    25.3440 h1         1 9CV       0.062700
     64 H25         -6.2580     9.1150    26.6150 h1         1 9CV       0.062700
     65 H26         -7.4750     9.3380    24.4750 hc         1 9CV       0.059700
     66 H27         -7.5760     7.5850    24.3000 hc         1 9CV       0.059700
     67 H28         -2.7260     5.0730    25.5840 h4         1 9CV       0.014100
     68 H29         -2.2470     4.1050    27.8390 ha         1 9CV       0.126000
     69 H30         -3.8540     4.5470    29.7300 ha         1 9CV       0.116000
     70 H31         -5.8700     5.9470    29.2550 ha         1 9CV       0.122000
@<TRIPOS>BOND
     1     1     2 1   
     2     2     3 ar  
     3     2     5 ar  
     4     3     4 ar  
     5     3    40 1   
     6     4    14 ar  
     7     4    41 1   
     8     5     6 1   
     9     5    13 ar  
    10     6     7 1   
    11     7     8 ar  
    12     7    12 ar  
    13     8     9 ar  
    14     8    42 1   
    15     9    10 ar  
    16     9    43 1   
    17    10    11 ar  
    18    10    44 1   
    19    11    12 ar  
    20    11    45 1   
    21    12    46 1   
    22    13    14 ar  
    23    13    47 1   
    24    14    15 1   
    25    15    16 1   
    26    15    48 1   
    27    15    49 1   
    28    16    17 1   
    29    16    50 1   
    30    17    18 ar  
    31    17    19 ar  
    32    18    22 ar  
    33    18    51 1   
    34    19    20 ar  
    35    19    27 1   
    36    20    21 ar  
    37    21    22 ar  
    38    21    52 1   
    39    22    23 1   
    40    23    24 2   
    41    23    25 1   
    42    25    26 1   
    43    25    53 1   
    44    26    54 1   
    45    26    55 1   
    46    26    56 1   
    47    27    28 1   
    48    27    57 1   
    49    28    29 1   
    50    28    33 1   
    51    28    58 1   
    52    29    30 1   
    53    29    59 1   
    54    29    60 1   
    55    30    31 1   
    56    30    61 1   
    57    30    62 1   
    58    31    32 1   
    59    31    34 1   
    60    32    33 1   
    61    32    63 1   
    62    32    64 1   
    63    33    65 1   
    64    33    66 1   
    65    34    35 ar  
    66    34    39 ar  
    67    35    36 ar  
    68    36    37 ar  
    69    36    67 1   
    70    37    38 ar  
    71    37    68 1   
    72    38    39 ar  
    73    38    69 1   
    74    39    70 1   
@<TRIPOS>SUBSTRUCTURE
     1 9CV         1 TEMP              0 ****  ****    0 ROOT
