@<TRIPOS>MOLECULE
9CW
   76    79     1     0     0
SMALL
No Charge or Current Charge


@<TRIPOS>ATOM
      1 O3          -5.5500     2.5130    -0.6680 oh         1 9CW      -0.656000
      2 C25         -6.0560     2.2540     0.6430 c6         1 9CW       0.211500
      3 C24         -7.5000     1.7000     0.5750 c6         1 9CW      -0.065400
      4 C23         -7.5430     0.2640    -0.0010 c6         1 9CW       0.176300
      5 O2          -8.8890    -0.2290     0.0190 oh         1 9CW      -0.662000
      6 C22         -6.6190    -0.6770     0.8110 c6         1 9CW      -0.073200
      7 C26         -5.1190     1.2670     1.3570 ce         1 9CW      -0.124200
      8 C27         -4.3300     1.6550     2.3830 c2         1 9CW      -0.296000
      9 C21         -5.1890    -0.1260     0.8730 ce         1 9CW      -0.066200
     10 C20         -4.1180    -0.9140     0.5550 cf         1 9CW      -0.162000
     11 C19         -2.7140    -0.4940     0.5580 cf         1 9CW      -0.192000
     12 C15         -1.6110    -1.2840     0.4150 c2         1 9CW      -0.077400
     13 C2          -0.1690    -0.7420     0.4450 c5         1 9CW      -0.036500
     14 C16         -1.6550    -2.8130     0.2820 c6         1 9CW      -0.042200
     15 C17         -0.8200    -3.3180    -0.9230 c6         1 9CW      -0.072400
     16 C18          0.6070    -2.7010    -0.9540 c6         1 9CW      -0.063400
     17 C1           0.5750    -1.1360    -0.8780 c5         1 9CW      -0.036000
     18 C           -0.0770    -0.5810    -2.1930 c3         1 9CW      -0.080100
     19 C5           1.9510    -0.4310    -0.5380 c5         1 9CW      -0.053700
     20 C4           1.4860     0.9690     0.0310 c5         1 9CW      -0.077400
     21 C3          -0.0020     0.7980     0.4690 c5         1 9CW      -0.069400
     22 C6           3.0610    -0.2970    -1.6460 c3         1 9CW      -0.037700
     23 C14          3.4220    -1.6450    -2.3270 c3         1 9CW      -0.082100
     24 C7           4.3320     0.4570    -1.1290 c5         1 9CW       0.164300
     25 C13          5.3730     0.9260    -2.1740 c5         1 9CW      -0.112400
     26 C12          6.5080     1.3440    -1.2050 c5         1 9CW      -0.101400
     27 C8           6.4290     0.2300    -0.1020 c5         1 9CW       0.139300
     28 O            5.1270    -0.3880    -0.2740 os         1 9CW      -0.457000
     29 C9           6.6490     0.6890     1.3890 c3         1 9CW       0.173000
     30 C11          6.7270    -0.5350     2.3340 c3         1 9CW      -0.097100
     31 O1           7.9050     1.3800     1.4910 oh         1 9CW      -0.721000
     32 C10          5.5550     1.6610     1.9050 c3         1 9CW      -0.097100
     33 H1          -4.5760     2.5670    -0.5680 ho         1 9CW       0.444000
     34 H2          -6.0820     3.1950     1.2120 h1         1 9CW       0.036700
     35 H3          -7.9280     1.7010     1.5870 hc         1 9CW       0.062200
     36 H4          -8.1280     2.3690    -0.0280 hc         1 9CW       0.062200
     37 H5          -7.1750     0.2970    -1.0380 h1         1 9CW       0.049700
     38 H6          -8.8740    -1.1070    -0.4220 ho         1 9CW       0.441000
     39 H7          -7.0050    -0.7900     1.8340 hc         1 9CW       0.051700
     40 H8          -6.6300    -1.6810     0.3640 hc         1 9CW       0.051700
     41 H9          -3.6880     0.9470     2.9080 ha         1 9CW       0.168500
     42 H10         -4.3080     2.6860     2.7380 ha         1 9CW       0.168500
     43 H11         -4.3390    -1.9330     0.2440 ha         1 9CW       0.169000
     44 H12         -2.5700     0.5760     0.6890 ha         1 9CW       0.174000
     45 H13          0.3370    -1.1700     1.3190 hc         1 9CW       0.054700
     46 H14         -1.2490    -3.2520     1.2030 hc         1 9CW       0.046700
     47 H15         -2.6720    -3.2060     0.1950 hc         1 9CW       0.046700
     48 H16         -0.7450    -4.4130    -0.8830 hc         1 9CW       0.040700
     49 H17         -1.3490    -3.0890    -1.8570 hc         1 9CW       0.040700
     50 H18          1.1880    -3.0990    -0.1110 hc         1 9CW       0.041700
     51 H19          1.1090    -3.0520    -1.8620 hc         1 9CW       0.041700
     52 H20         -1.1480    -0.8050    -2.2500 hc         1 9CW       0.034033
     53 H21          0.0260     0.5050    -2.2910 hc         1 9CW       0.034033
     54 H22          0.3930    -1.0170    -3.0820 hc         1 9CW       0.034033
     55 H23          2.4380    -0.9890     0.2730 hc         1 9CW       0.060700
     56 H24          2.1130     1.2730     0.8770 hc         1 9CW       0.040700
     57 H25          1.5690     1.7650    -0.7180 hc         1 9CW       0.040700
     58 H26         -0.6690     1.3110    -0.2320 hc         1 9CW       0.043200
     59 H27         -0.1930     1.2200     1.4630 hc         1 9CW       0.043200
     60 H28          2.6420     0.3340    -2.4390 hc         1 9CW       0.048700
     61 H29          2.6150    -1.9740    -2.9880 hc         1 9CW       0.035367
     62 H30          4.3110    -1.5620    -2.9590 hc         1 9CW       0.035367
     63 H31          3.6130    -2.4250    -1.5800 hc         1 9CW       0.035367
     64 H32          4.0080     1.3280    -0.5460 h1         1 9CW       0.036700
     65 H33          5.7000     0.1290    -2.8490 hc         1 9CW       0.055200
     66 H34          5.0110     1.7600    -2.7860 hc         1 9CW       0.055200
     67 H35          7.4870     1.3700    -1.6970 hc         1 9CW       0.058700
     68 H36          6.3320     2.3460    -0.8000 hc         1 9CW       0.058700
     69 H37          7.1740    -0.5460    -0.3260 h1         1 9CW       0.045700
     70 H38          6.9440    -0.2260     3.3640 hc         1 9CW       0.043700
     71 H39          5.7750    -1.0810     2.3400 hc         1 9CW       0.043700
     72 H40          7.5110    -1.2320     2.0150 hc         1 9CW       0.043700
     73 H41          8.6150     0.7220     1.3160 ho         1 9CW       0.499000
     74 H42          5.7600     1.9640     2.9390 hc         1 9CW       0.043700
     75 H43          5.5020     2.5710     1.2980 hc         1 9CW       0.043700
     76 H44          4.5690     1.1830     1.8880 hc         1 9CW       0.043700
@<TRIPOS>BOND
     1     1     2 1   
     2     1    33 1   
     3     2     3 1   
     4     2     7 1   
     5     2    34 1   
     6     3     4 1   
     7     3    35 1   
     8     3    36 1   
     9     4     5 1   
    10     4     6 1   
    11     4    37 1   
    12     5    38 1   
    13     6     9 1   
    14     6    39 1   
    15     6    40 1   
    16     7     8 2   
    17     7     9 1   
    18     8    41 1   
    19     8    42 1   
    20     9    10 2   
    21    10    11 1   
    22    10    43 1   
    23    11    12 2   
    24    11    44 1   
    25    12    13 1   
    26    12    14 1   
    27    13    17 1   
    28    13    21 1   
    29    13    45 1   
    30    14    15 1   
    31    14    46 1   
    32    14    47 1   
    33    15    16 1   
    34    15    48 1   
    35    15    49 1   
    36    16    17 1   
    37    16    50 1   
    38    16    51 1   
    39    17    18 1   
    40    17    19 1   
    41    18    52 1   
    42    18    53 1   
    43    18    54 1   
    44    19    20 1   
    45    19    22 1   
    46    19    55 1   
    47    20    21 1   
    48    20    56 1   
    49    20    57 1   
    50    21    58 1   
    51    21    59 1   
    52    22    23 1   
    53    22    24 1   
    54    22    60 1   
    55    23    61 1   
    56    23    62 1   
    57    23    63 1   
    58    24    25 1   
    59    24    28 1   
    60    24    64 1   
    61    25    26 1   
    62    25    65 1   
    63    25    66 1   
    64    26    27 1   
    65    26    67 1   
    66    26    68 1   
    67    27    28 1   
    68    27    29 1   
    69    27    69 1   
    70    29    30 1   
    71    29    31 1   
    72    29    32 1   
    73    30    70 1   
    74    30    71 1   
    75    30    72 1   
    76    31    73 1   
    77    32    74 1   
    78    32    75 1   
    79    32    76 1   
@<TRIPOS>SUBSTRUCTURE
     1 9CW         1 TEMP              0 ****  ****    0 ROOT
