@<TRIPOS>MOLECULE
9CW
   76    79     1     0     0
SMALL
abcg2


@<TRIPOS>ATOM
      1 O3          -5.3450     2.1010    -1.0340 oh         1 9CW      -0.656000
      2 C25         -5.9270     2.1110     0.2570 c6         1 9CW       0.211500
      3 C24         -7.3380     1.5540     0.1280 c6         1 9CW      -0.065400
      4 C23         -7.3400     0.0800    -0.2500 c6         1 9CW       0.176300
      5 O2          -8.6870    -0.3470    -0.2890 oh         1 9CW      -0.662000
      6 C22         -6.5220    -0.7310     0.7580 c6         1 9CW      -0.073200
      7 C26         -5.1080     1.2700     1.2090 ce         1 9CW      -0.124200
      8 C27         -4.4660     1.8170     2.2400 c2         1 9CW      -0.296000
      9 C21         -5.1320    -0.1750     0.9140 ce         1 9CW      -0.066200
     10 C20         -4.0430    -0.9460     0.7520 cf         1 9CW      -0.162000
     11 C19         -2.6610    -0.5110     0.7950 cf         1 9CW      -0.192000
     12 C15         -1.5820    -1.2980     0.6560 c2         1 9CW      -0.077400
     13 C2          -0.1790    -0.7800     0.6530 c5         1 9CW      -0.036500
     14 C16         -1.6070    -2.7880     0.4500 c6         1 9CW      -0.042200
     15 C17         -0.8490    -3.1760    -0.8240 c6         1 9CW      -0.072400
     16 C18          0.5580    -2.5790    -0.8940 c6         1 9CW      -0.063400
     17 C1           0.5520    -1.0630    -0.6850 c5         1 9CW      -0.036000
     18 C           -0.1340    -0.3530    -1.8530 c3         1 9CW      -0.080100
     19 C5           1.9250    -0.4130    -0.3800 c5         1 9CW      -0.053700
     20 C4           1.5560     0.8690     0.4110 c5         1 9CW      -0.077400
     21 C3           0.1220     0.6800     0.9450 c5         1 9CW      -0.069400
     22 C6           2.8770    -0.1290    -1.5540 c3         1 9CW      -0.037700
     23 C14          3.2320    -1.3850    -2.3470 c3         1 9CW      -0.082100
     24 C7           4.1280     0.6040    -1.0620 c5         1 9CW       0.164300
     25 C13          5.1240     1.0810    -2.1110 c5         1 9CW      -0.112400
     26 C12          6.3810     1.2620    -1.2650 c5         1 9CW      -0.101400
     27 C8           6.2480     0.1550    -0.2120 c5         1 9CW       0.139300
     28 O            4.8870    -0.2440    -0.2130 os         1 9CW      -0.457000
     29 C9           6.7030     0.5420     1.2080 c3         1 9CW       0.173000
     30 C11          6.6330    -0.6780     2.1250 c3         1 9CW      -0.097100
     31 O1           8.0390     1.0200     1.1290 oh         1 9CW      -0.721000
     32 C10          5.8710     1.6720     1.7990 c3         1 9CW      -0.097100
     33 H1          -4.4350     2.4050    -0.9550 ho         1 9CW       0.444000
     34 H2          -5.9860     3.1360     0.6480 h1         1 9CW       0.036700
     35 H3          -7.8450     1.6810     1.0890 hc         1 9CW       0.062200
     36 H4          -7.8970     2.1380    -0.6090 hc         1 9CW       0.062200
     37 H5          -6.8780    -0.0370    -1.2390 h1         1 9CW       0.049700
     38 H6          -8.7050    -1.2500    -0.6190 ho         1 9CW       0.441000
     39 H7          -7.0440    -0.6960     1.7230 hc         1 9CW       0.051700
     40 H8          -6.4780    -1.7800     0.4530 hc         1 9CW       0.051700
     41 H9          -3.9000     1.2220     2.9450 ha         1 9CW       0.168500
     42 H10         -4.5030     2.8850     2.4210 ha         1 9CW       0.168500
     43 H11         -4.2240    -1.9930     0.5290 ha         1 9CW       0.169000
     44 H12         -2.5020     0.5520     0.9370 ha         1 9CW       0.174000
     45 H13          0.3660    -1.3730     1.4050 hc         1 9CW       0.054700
     46 H14         -1.1190    -3.2620     1.3100 hc         1 9CW       0.046700
     47 H15         -2.6190    -3.1900     0.4100 hc         1 9CW       0.046700
     48 H16         -0.7860    -4.2650    -0.8890 hc         1 9CW       0.040700
     49 H17         -1.4300    -2.8540    -1.6920 hc         1 9CW       0.040700
     50 H18          1.1880    -3.0380    -0.1230 hc         1 9CW       0.041700
     51 H19          0.9980    -2.8480    -1.8550 hc         1 9CW       0.041700
     52 H20         -1.1930    -0.6040    -1.9270 hc         1 9CW       0.034033
     53 H21         -0.0700     0.7330    -1.7670 hc         1 9CW       0.034033
     54 H22          0.3320    -0.6290    -2.8010 hc         1 9CW       0.034033
     55 H23          2.4420    -1.1000     0.3010 hc         1 9CW       0.060700
     56 H24          2.2690     1.0420     1.2180 hc         1 9CW       0.040700
     57 H25          1.6060     1.7490    -0.2350 hc         1 9CW       0.040700
     58 H26         -0.5690     1.3440     0.4210 hc         1 9CW       0.043200
     59 H27          0.0340     0.9110     2.0080 hc         1 9CW       0.043200
     60 H28          2.3770     0.5770    -2.2290 hc         1 9CW       0.048700
     61 H29          2.3750    -1.7590    -2.9030 hc         1 9CW       0.035367
     62 H30          4.0120    -1.1930    -3.0840 hc         1 9CW       0.035367
     63 H31          3.5840    -2.1880    -1.6990 hc         1 9CW       0.035367
     64 H32          3.8070     1.4920    -0.4990 h1         1 9CW       0.036700
     65 H33          5.2850     0.3300    -2.8860 hc         1 9CW       0.055200
     66 H34          4.7990     2.0010    -2.5970 hc         1 9CW       0.055200
     67 H35          7.3000     1.1680    -1.8430 hc         1 9CW       0.058700
     68 H36          6.3880     2.2530    -0.8080 hc         1 9CW       0.058700
     69 H37          6.8490    -0.7150    -0.5200 h1         1 9CW       0.045700
     70 H38          6.9910    -0.4280     3.1250 hc         1 9CW       0.043700
     71 H39          5.6120    -1.0480     2.2160 hc         1 9CW       0.043700
     72 H40          7.2470    -1.4970     1.7400 hc         1 9CW       0.043700
     73 H41          8.6000     0.3050     0.8110 ho         1 9CW       0.499000
     74 H42          6.2260     1.9110     2.8030 hc         1 9CW       0.043700
     75 H43          5.9200     2.5850     1.2030 hc         1 9CW       0.043700
     76 H44          4.8250     1.3770     1.8810 hc         1 9CW       0.043700
@<TRIPOS>BOND
     1     1     2 1   
     2     1    33 1   
     3     2     3 1   
     4     2     7 1   
     5     2    34 1   
     6     3     4 1   
     7     3    35 1   
     8     3    36 1   
     9     4     5 1   
    10     4     6 1   
    11     4    37 1   
    12     5    38 1   
    13     6     9 1   
    14     6    39 1   
    15     6    40 1   
    16     7     8 2   
    17     7     9 1   
    18     8    41 1   
    19     8    42 1   
    20     9    10 2   
    21    10    11 1   
    22    10    43 1   
    23    11    12 2   
    24    11    44 1   
    25    12    13 1   
    26    12    14 1   
    27    13    17 1   
    28    13    21 1   
    29    13    45 1   
    30    14    15 1   
    31    14    46 1   
    32    14    47 1   
    33    15    16 1   
    34    15    48 1   
    35    15    49 1   
    36    16    17 1   
    37    16    50 1   
    38    16    51 1   
    39    17    18 1   
    40    17    19 1   
    41    18    52 1   
    42    18    53 1   
    43    18    54 1   
    44    19    20 1   
    45    19    22 1   
    46    19    55 1   
    47    20    21 1   
    48    20    56 1   
    49    20    57 1   
    50    21    58 1   
    51    21    59 1   
    52    22    23 1   
    53    22    24 1   
    54    22    60 1   
    55    23    61 1   
    56    23    62 1   
    57    23    63 1   
    58    24    25 1   
    59    24    28 1   
    60    24    64 1   
    61    25    26 1   
    62    25    65 1   
    63    25    66 1   
    64    26    27 1   
    65    26    67 1   
    66    26    68 1   
    67    27    28 1   
    68    27    29 1   
    69    27    69 1   
    70    29    30 1   
    71    29    31 1   
    72    29    32 1   
    73    30    70 1   
    74    30    71 1   
    75    30    72 1   
    76    31    73 1   
    77    32    74 1   
    78    32    75 1   
    79    32    76 1   
@<TRIPOS>SUBSTRUCTURE
     1 9CW         1 TEMP              0 ****  ****    0 ROOT
