@<TRIPOS>MOLECULE
9CX
   41    43     1     0     0
SMALL
abcg2


@<TRIPOS>ATOM
      1 C8          -1.0180    -1.0640     0.7460 c          1 9CX       0.701700
      2 C5          -2.1790     1.0040     0.0150 ca         1 9CX       0.039700
      3 C6          -0.9020     1.7280     0.3080 c6         1 9CX      -0.082100
      4 C2          -4.5270    -0.4370    -0.4230 ca         1 9CX      -0.287000
      5 C4          -3.2990     1.6580    -0.4410 ca         1 9CX      -0.202000
      6 C15          4.0920     1.6750     0.2340 c6         1 9CX      -0.109400
      7 C14          5.3350     1.0070    -0.3410 c6         1 9CX      -0.071400
      8 C13          5.3870    -0.4530     0.0970 c6         1 9CX      -0.106400
      9 C12          4.0800    -1.1830    -0.2080 c6         1 9CX       0.172300
     10 C16          3.9110    -1.5110    -1.6880 c3         1 9CX      -0.121100
     11 O5           2.9710    -0.4680     0.3180 os         1 9CX      -0.439000
     12 C11          2.8480     0.8700    -0.1180 c6         1 9CX       0.176300
     13 C7           0.2900     0.8240     0.0690 c6         1 9CX       0.199300
     14 O3           0.1300    -0.4130     0.7960 os         1 9CX      -0.406100
     15 O4          -1.0350    -2.2240     1.1360 o          1 9CX      -0.557000
     16 C9          -2.2020    -0.3790     0.2510 ca         1 9CX      -0.354600
     17 C3          -4.4740     0.9300    -0.6670 ca         1 9CX       0.220100
     18 O2          -5.5320     1.6090    -1.1210 oh         1 9CX      -0.525100
     19 C1          -3.3980    -1.0970     0.0490 ca         1 9CX       0.273100
     20 O1          -3.4900    -2.4010     0.2940 oh         1 9CX      -0.538100
     21 H1          -0.8110     2.6100    -0.3270 hc         1 9CX       0.071700
     22 H2          -0.9050     2.0810     1.3450 hc         1 9CX       0.071700
     23 H3          -5.4390    -0.9970    -0.5930 ha         1 9CX       0.135000
     24 H4          -3.2810     2.7250    -0.6270 ha         1 9CX       0.134000
     25 H6           3.9860     2.6940    -0.1460 hc         1 9CX       0.047200
     26 H7           5.3170     1.0810    -1.4330 hc         1 9CX       0.041200
     27 H8           6.2360     1.5290    -0.0140 hc         1 9CX       0.041200
     28 H9           6.2190    -0.9750    -0.3810 hc         1 9CX       0.049200
     29 H10          5.5710    -0.4940     1.1750 hc         1 9CX       0.049200
     30 H11          4.0770    -2.1290     0.3410 h1         1 9CX       0.074700
     31 H12          4.6730    -2.2290    -1.9940 hc         1 9CX       0.039700
     32 H13          2.9360    -1.9640    -1.8710 hc         1 9CX       0.039700
     33 H14          4.0050    -0.6410    -2.3380 hc         1 9CX       0.039700
     34 H15          2.7220     0.9050    -1.2120 h1         1 9CX       0.027700
     35 H18          0.3370     0.5730    -0.9970 h1         1 9CX       0.057700
     36 H19         -6.2920     1.0270    -1.2370 ho         1 9CX       0.475000
     37 H20         -2.6300    -2.6960     0.6670 ho         1 9CX       0.521000
     38 C10          1.5960     1.4640     0.5030 c3         1 9CX      -0.071400
     39 H5           4.1820     1.7470     1.3240 hc         1 9CX       0.047200
     40 H16          1.6650     1.4620     1.5950 hc         1 9CX       0.062200
     41 H17          1.5550     2.5150     0.2030 hc         1 9CX       0.062200
@<TRIPOS>BOND
     1     1    14 1   
     2     1    15 2   
     3     1    16 1   
     4     2     3 1   
     5     2     5 ar  
     6     2    16 ar  
     7     3    13 1   
     8     3    21 1   
     9     3    22 1   
    10     4    17 ar  
    11     4    19 ar  
    12     4    23 1   
    13     5    17 ar  
    14     5    24 1   
    15     6     7 1   
    16     6    12 1   
    17     6    25 1   
    18     6    39 1   
    19     7     8 1   
    20     7    26 1   
    21     7    27 1   
    22     8     9 1   
    23     8    28 1   
    24     8    29 1   
    25     9    10 1   
    26     9    11 1   
    27     9    30 1   
    28    10    31 1   
    29    10    32 1   
    30    10    33 1   
    31    11    12 1   
    32    12    34 1   
    33    12    38 1   
    34    13    14 1   
    35    13    35 1   
    36    13    38 1   
    37    16    19 ar  
    38    17    18 1   
    39    18    36 1   
    40    19    20 1   
    41    20    37 1   
    42    38    40 1   
    43    38    41 1   
@<TRIPOS>SUBSTRUCTURE
     1 9CX         1 TEMP              0 ****  ****    0 ROOT
