@<TRIPOS>MOLECULE
9CX
   41    43     1     0     0
SMALL
No Charge or Current Charge


@<TRIPOS>ATOM
      1 C8          -1.0010    -1.1550     0.5640 c          1 9CX       0.701700
      2 C5          -2.2400     0.9910     0.0910 ca         1 9CX       0.039700
      3 C6          -0.9600     1.7380     0.4150 c6         1 9CX      -0.082100
      4 C2          -4.6010    -0.4010    -0.4970 ca         1 9CX      -0.287000
      5 C4          -3.4040     1.6910    -0.2650 ca         1 9CX      -0.202000
      6 C15          4.1500     1.7360     0.0920 c6         1 9CX      -0.109400
      7 C14          5.4170     1.0130    -0.4270 c6         1 9CX      -0.071400
      8 C13          5.5080    -0.4190     0.1620 c6         1 9CX      -0.106400
      9 C12          4.1830    -1.2080    -0.0280 c6         1 9CX       0.172300
     10 C16          3.9120    -1.6520    -1.4950 c3         1 9CX      -0.121100
     11 O5           3.0650    -0.4240     0.4570 os         1 9CX      -0.439000
     12 C11          2.8840     0.8740    -0.1580 c6         1 9CX       0.176300
     13 C7           0.2550     0.8810     0.0170 c6         1 9CX       0.199300
     14 O3           0.1580    -0.4260     0.6120 os         1 9CX      -0.406100
     15 O4          -1.0310    -2.3350     0.8900 o          1 9CX      -0.557000
     16 C9          -2.2500    -0.4160     0.1550 ca         1 9CX      -0.354600
     17 C3          -4.5790     0.9950    -0.5620 ca         1 9CX       0.220100
     18 O2          -5.7010     1.6800    -0.9090 oh         1 9CX      -0.525100
     19 C1          -3.4460    -1.1020    -0.1340 ca         1 9CX       0.273100
     20 O1          -3.5110    -2.4560    -0.0630 oh         1 9CX      -0.538100
     21 H1          -0.9290     2.6970    -0.1200 hc         1 9CX       0.071700
     22 H2          -0.9270     1.9690     1.4880 hc         1 9CX       0.071700
     23 H3          -5.5110    -0.9510    -0.7190 ha         1 9CX       0.135000
     24 H4          -3.3970     2.7770    -0.3130 ha         1 9CX       0.134000
     25 H6           4.0480     2.7090    -0.4060 hc         1 9CX       0.047200
     26 H7           5.3960     0.9680    -1.5240 hc         1 9CX       0.041200
     27 H8           6.3140     1.5870    -0.1580 hc         1 9CX       0.041200
     28 H9           6.3430    -0.9650    -0.2960 hc         1 9CX       0.049200
     29 H10          5.7330    -0.3560     1.2360 hc         1 9CX       0.049200
     30 H11          4.2360    -2.1230     0.5810 h1         1 9CX       0.074700
     31 H12          4.6520    -2.3960    -1.8120 hc         1 9CX       0.039700
     32 H13          2.9220    -2.1140    -1.5870 hc         1 9CX       0.039700
     33 H14          3.9660    -0.8210    -2.2060 hc         1 9CX       0.039700
     34 H15          2.7280     0.7560    -1.2400 h1         1 9CX       0.027700
     35 H18          0.2520     0.7630    -1.0770 h1         1 9CX       0.057700
     36 H19         -6.4140     1.0280    -1.0770 ho         1 9CX       0.475000
     37 H20         -2.6430    -2.7530     0.3070 ho         1 9CX       0.521000
     38 C10          1.6060     1.5250     0.4450 c3         1 9CX      -0.071400
     39 H5           4.2540     1.9410     1.1660 hc         1 9CX       0.047200
     40 H16          1.6790     1.5370     1.5390 hc         1 9CX       0.062200
     41 H17          1.5890     2.5790     0.1410 hc         1 9CX       0.062200
@<TRIPOS>BOND
     1     1    14 1   
     2     1    15 2   
     3     1    16 1   
     4     2     3 1   
     5     2     5 ar  
     6     2    16 ar  
     7     3    13 1   
     8     3    21 1   
     9     3    22 1   
    10     4    17 ar  
    11     4    19 ar  
    12     4    23 1   
    13     5    17 ar  
    14     5    24 1   
    15     6     7 1   
    16     6    12 1   
    17     6    25 1   
    18     6    39 1   
    19     7     8 1   
    20     7    26 1   
    21     7    27 1   
    22     8     9 1   
    23     8    28 1   
    24     8    29 1   
    25     9    10 1   
    26     9    11 1   
    27     9    30 1   
    28    10    31 1   
    29    10    32 1   
    30    10    33 1   
    31    11    12 1   
    32    12    34 1   
    33    12    38 1   
    34    13    14 1   
    35    13    35 1   
    36    13    38 1   
    37    16    19 ar  
    38    17    18 1   
    39    18    36 1   
    40    19    20 1   
    41    20    37 1   
    42    38    40 1   
    43    38    41 1   
@<TRIPOS>SUBSTRUCTURE
     1 9CX         1 TEMP              0 ****  ****    0 ROOT
