@<TRIPOS>MOLECULE
9CY
   45    47     1     0     0
SMALL
No Charge or Current Charge


@<TRIPOS>ATOM
      1 N1          -7.1410    -0.8640    -0.4990 nb         1 9CY      -0.662000
      2 C4           4.6560    -1.2270     0.9460 ca         1 9CY      -0.102000
      3 C5           4.3940    -2.4630     1.5630 ca         1 9CY      -0.106500
      4 C6           3.4630    -3.3480     0.9950 ca         1 9CY      -0.107000
      5 C7           2.7940    -2.9970    -0.1890 ca         1 9CY      -0.106500
      6 C8           3.0570    -1.7620    -0.8060 ca         1 9CY      -0.102000
      7 C10         -0.1620     0.6440     0.5630 ca         1 9CY      -0.138600
      8 C13         -2.9330     0.0460     0.1410 cp         1 9CY      -0.027000
      9 C15         -0.7450     0.7730    -0.7210 ca         1 9CY      -0.074000
     10 C17         -5.3570    -0.0470     0.9220 ca         1 9CY      -0.155000
     11 C20         -4.8560    -0.8010    -1.3020 ca         1 9CY      -0.155000
     12 O1           1.8040     0.8180     1.9320 o          1 9CY      -0.601100
     13 N            2.0400     1.3810    -0.2550 ns         1 9CY      -0.496900
     14 C1           3.4860     1.6480    -0.2490 c3         1 9CY       0.114700
     15 C2           4.2660     0.4780    -0.9020 c3         1 9CY      -0.045100
     16 C3           3.9890    -0.8690    -0.2420 ca         1 9CY      -0.080300
     17 C            3.7950     3.0200    -0.9070 c3         1 9CY       0.145600
     18 O            3.2510     3.0950    -2.2380 oh         1 9CY      -0.670000
     19 C14         -2.1040     0.4770    -0.9230 ca         1 9CY      -0.105000
     20 C12         -2.3410    -0.0800     1.4210 ca         1 9CY      -0.105000
     21 C11         -0.9830     0.2120     1.6280 ca         1 9CY      -0.074000
     22 C16         -4.3810    -0.2670    -0.0790 cp         1 9CY       0.003000
     23 C19         -6.2220    -1.0820    -1.4670 ca         1 9CY       0.334400
     24 C18         -6.7050    -0.3540     0.6750 ca         1 9CY       0.334400
     25 H2           4.9120    -2.7320     2.4810 ha         1 9CY       0.110500
     26 H3           3.2590    -4.3040     1.4730 ha         1 9CY       0.111000
     27 H4           2.0710    -3.6810    -0.6290 ha         1 9CY       0.110500
     28 H5           2.5310    -1.4970    -1.7210 ha         1 9CY       0.106500
     29 H6          -0.1610     1.1000    -1.5770 ha         1 9CY       0.126000
     30 H7          -5.0820     0.3720     1.8850 ha         1 9CY       0.125000
     31 H8          -4.1730    -1.0140    -2.1180 ha         1 9CY       0.125000
     32 H9           1.5510     1.5030    -1.1310 hn         1 9CY       0.324500
     33 H10          3.8230     1.7190     0.7940 h1         1 9CY       0.086700
     34 H11          4.0160     0.4300    -1.9690 hc         1 9CY       0.056700
     35 H12          5.3400     0.6990    -0.8550 hc         1 9CY       0.056700
     36 H13          3.3620     3.8130    -0.2820 h1         1 9CY       0.031700
     37 H14          4.8820     3.1740    -0.9260 h1         1 9CY       0.031700
     38 H15          3.4790     3.9840    -2.5930 ho         1 9CY       0.448000
     39 H16         -2.5220     0.6000    -1.9190 ha         1 9CY       0.119000
     40 H17         -2.9360    -0.4230     2.2630 ha         1 9CY       0.119000
     41 H18         -0.5680     0.0970     2.6280 ha         1 9CY       0.126000
     42 H19         -6.5930    -1.4970    -2.4030 h4         1 9CY       0.019100
     43 H20         -7.4620    -0.1820     1.4400 h4         1 9CY       0.019100
     44 C9           1.3010     0.9470     0.8240 c          1 9CY       0.617700
     45 H1           5.3750    -0.5450     1.3950 ha         1 9CY       0.106500
@<TRIPOS>BOND
     1     1    23 ar  
     2     1    24 ar  
     3     2     3 ar  
     4     2    16 ar  
     5     2    45 1   
     6     3     4 ar  
     7     3    25 1   
     8     4     5 ar  
     9     4    26 1   
    10     5     6 ar  
    11     5    27 1   
    12     6    16 ar  
    13     6    28 1   
    14     7     9 ar  
    15     7    21 ar  
    16     7    44 1   
    17     8    19 ar  
    18     8    20 ar  
    19     8    22 1   
    20     9    19 ar  
    21     9    29 1   
    22    10    22 ar  
    23    10    24 ar  
    24    10    30 1   
    25    11    22 ar  
    26    11    23 ar  
    27    11    31 1   
    28    12    44 2   
    29    13    14 1   
    30    13    32 1   
    31    13    44 1   
    32    14    15 1   
    33    14    17 1   
    34    14    33 1   
    35    15    16 1   
    36    15    34 1   
    37    15    35 1   
    38    17    18 1   
    39    17    36 1   
    40    17    37 1   
    41    18    38 1   
    42    19    39 1   
    43    20    21 ar  
    44    20    40 1   
    45    21    41 1   
    46    23    42 1   
    47    24    43 1   
@<TRIPOS>SUBSTRUCTURE
     1 9CY         1 TEMP              0 ****  ****    0 ROOT
