@<TRIPOS>MOLECULE
9CY
   45    47     1     0     0
SMALL
bcc


@<TRIPOS>ATOM
      1 N1          -6.9510    -0.9380    -0.4750 nb         1 9CY      -0.662000
      2 C4           4.5440    -1.3160     0.6960 ca         1 9CY      -0.120000
      3 C5           4.2330    -2.5750     1.1880 ca         1 9CY      -0.124500
      4 C6           3.2460    -3.3380     0.5760 ca         1 9CY      -0.125000
      5 C7           2.5780    -2.8330    -0.5300 ca         1 9CY      -0.124500
      6 C8           2.8970    -1.5730    -1.0210 ca         1 9CY      -0.120000
      7 C10         -0.1250     0.6170     0.6110 ca         1 9CY      -0.138600
      8 C13         -2.8270    -0.0010     0.1790 cp         1 9CY      -0.027000
      9 C15         -0.5660     0.2070    -0.6450 ca         1 9CY      -0.092000
     10 C17         -5.2650     0.3820     0.5930 ca         1 9CY      -0.238300
     11 C20         -4.6340    -1.3490    -0.9080 ca         1 9CY      -0.238300
     12 O1           1.7740     0.7360     2.0170 o          1 9CY      -0.601100
     13 N            2.0150     1.4280    -0.1250 ns         1 9CY      -0.563900
     14 C1           3.4430     1.6580    -0.0940 c3         1 9CY       0.114700
     15 C2           4.1850     0.5870    -0.9100 c3         1 9CY      -0.045100
     16 C3           3.8820    -0.7980    -0.4150 ca         1 9CY      -0.080300
     17 C            3.7640     3.0670    -0.5620 c3         1 9CY       0.122400
     18 O            3.3040     3.2220    -1.8860 oh         1 9CY      -0.607800
     19 C14         -1.8990    -0.1040    -0.8560 ca         1 9CY      -0.123000
     20 C12         -2.3800     0.4090     1.4370 ca         1 9CY      -0.123000
     21 C11         -1.0450     0.6990     1.6520 ca         1 9CY      -0.092000
     22 C16         -4.2480    -0.3240    -0.0460 cp         1 9CY       0.003000
     23 C19         -5.9830    -1.6130    -1.0840 ca         1 9CY       0.399700
     24 C18         -6.5850     0.0400     0.3450 ca         1 9CY       0.399700
     25 H2           4.7620    -2.9630     2.0500 ha         1 9CY       0.128500
     26 H3           3.0030    -4.3220     0.9570 ha         1 9CY       0.129000
     27 H4           1.8090    -3.4200    -1.0160 ha         1 9CY       0.128500
     28 H5           2.3760    -1.1900    -1.8910 ha         1 9CY       0.124500
     29 H6           0.1270     0.0980    -1.4690 ha         1 9CY       0.144000
     30 H7          -5.0460     1.2040     1.2610 ha         1 9CY       0.143000
     31 H8          -3.9020    -1.9550    -1.4260 ha         1 9CY       0.143000
     32 H9           1.5410     1.6330    -0.9900 hn         1 9CY       0.324500
     33 H10          3.7630     1.5850     0.9460 h1         1 9CY       0.086700
     34 H11          3.9130     0.6760    -1.9640 hc         1 9CY       0.056700
     35 H12          5.2580     0.7880    -0.8390 hc         1 9CY       0.056700
     36 H13          3.2840     3.7810     0.1180 h1         1 9CY       0.031700
     37 H14          4.8480     3.2200    -0.4850 h1         1 9CY       0.031700
     38 H15          3.4380     4.1370    -2.1500 ho         1 9CY       0.409000
     39 H16         -2.2170    -0.4160    -1.8420 ha         1 9CY       0.137000
     40 H17         -3.0750     0.4750     2.2640 ha         1 9CY       0.137000
     41 H18         -0.7170     0.9960     2.6390 ha         1 9CY       0.144000
     42 H19         -6.2920    -2.4140    -1.7470 h4         1 9CY       0.019100
     43 H20         -7.3820     0.5900     0.8330 h4         1 9CY       0.019100
     44 C9           1.3100     0.9240     0.9010 c          1 9CY       0.684700
     45 H1           5.3110    -0.7240     1.1820 ha         1 9CY       0.124500
@<TRIPOS>BOND
     1     1    23 ar  
     2     1    24 ar  
     3     2     3 ar  
     4     2    16 ar  
     5     2    45 1   
     6     3     4 ar  
     7     3    25 1   
     8     4     5 ar  
     9     4    26 1   
    10     5     6 ar  
    11     5    27 1   
    12     6    16 ar  
    13     6    28 1   
    14     7     9 ar  
    15     7    21 ar  
    16     7    44 1   
    17     8    19 ar  
    18     8    20 ar  
    19     8    22 1   
    20     9    19 ar  
    21     9    29 1   
    22    10    22 ar  
    23    10    24 ar  
    24    10    30 1   
    25    11    22 ar  
    26    11    23 ar  
    27    11    31 1   
    28    12    44 2   
    29    13    14 1   
    30    13    32 1   
    31    13    44 1   
    32    14    15 1   
    33    14    17 1   
    34    14    33 1   
    35    15    16 1   
    36    15    34 1   
    37    15    35 1   
    38    17    18 1   
    39    17    36 1   
    40    17    37 1   
    41    18    38 1   
    42    19    39 1   
    43    20    21 ar  
    44    20    40 1   
    45    21    41 1   
    46    23    42 1   
    47    24    43 1   
@<TRIPOS>SUBSTRUCTURE
     1 9CY         1 TEMP              0 ****  ****    0 ROOT
