@<TRIPOS>MOLECULE
9CZ
   76    79     1     0     0
SMALL
abcg2


@<TRIPOS>ATOM
      1 O3          -5.4280     2.0350    -0.8430 oh         1 9CZ      -0.656000
      2 C25         -6.1410     1.7990     0.3570 c6         1 9CZ       0.211500
      3 C24         -7.4850     1.1900    -0.0170 c6         1 9CZ      -0.065400
      4 C23         -7.3450    -0.2070    -0.6040 c6         1 9CZ       0.176300
      5 O2          -8.6460    -0.6930    -0.8590 oh         1 9CZ      -0.662000
      6 C22         -6.5790    -1.1150     0.3630 c6         1 9CZ      -0.073200
      7 C26         -5.3600     0.8620     1.2520 ce         1 9CZ      -0.124200
      8 C27         -4.8580     1.2690     2.4160 c2         1 9CZ      -0.296000
      9 C21         -5.2500    -0.5130     0.7290 ce         1 9CZ      -0.067200
     10 C20         -4.0940    -1.1690     0.5290 cf         1 9CZ      -0.160000
     11 C19         -2.7610    -0.6480     0.7590 cf         1 9CZ      -0.193000
     12 C15         -1.6050    -1.3000     0.5540 c2         1 9CZ      -0.076400
     13 C2          -0.2670    -0.6700     0.7760 c5         1 9CZ      -0.037500
     14 C16         -1.4680    -2.7200     0.0760 c6         1 9CZ      -0.042200
     15 C17         -0.5550    -2.8170    -1.1540 c6         1 9CZ      -0.071400
     16 C18          0.7800    -2.0960    -0.9680 c6         1 9CZ      -0.063400
     17 C1           0.5910    -0.6470    -0.5140 c5         1 9CZ      -0.037000
     18 C           -0.0910     0.1810    -1.6050 c3         1 9CZ      -0.080100
     19 C5           1.8560     0.0710     0.0170 c5         1 9CZ      -0.051700
     20 C4           1.2850     1.1650     0.9570 c5         1 9CZ      -0.077400
     21 C3          -0.1510     0.7430     1.3270 c5         1 9CZ      -0.070400
     22 C6           2.8540     0.6310    -1.0080 c3         1 9CZ      -0.048700
     23 C14          3.4330    -0.4370    -1.9330 c3         1 9CZ      -0.083100
     24 C7           3.9660     1.4290    -0.3180 c5         1 9CZ       0.167300
     25 C13          4.9280     2.1690    -1.2700 c5         1 9CZ      -0.110400
     26 C12          6.2740     1.4790    -1.0600 c5         1 9CZ      -0.106400
     27 C8           6.1380     0.9310     0.3540 c5         1 9CZ       0.134300
     28 O            4.7760     0.5600     0.4630 os         1 9CZ      -0.471000
     29 C9           6.9990    -0.2920     0.6960 c3         1 9CZ       0.191000
     30 C11          6.7820    -0.6990     2.1550 c3         1 9CZ      -0.099100
     31 O1           6.6710    -1.3710    -0.1640 oh         1 9CZ      -0.722000
     32 C10          8.4670     0.0330     0.4600 c3         1 9CZ      -0.099100
     33 H1          -4.5580     2.3750    -0.6120 ho         1 9CZ       0.444000
     34 H2          -6.3180     2.7400     0.8950 h1         1 9CZ       0.036700
     35 H3          -8.1010     1.1390     0.8870 hc         1 9CZ       0.062200
     36 H4          -8.0020     1.8490    -0.7200 hc         1 9CZ       0.062200
     37 H5          -6.7710    -0.1470    -1.5390 h1         1 9CZ       0.048700
     38 H6          -8.5680    -1.5400    -1.3070 ho         1 9CZ       0.442000
     39 H7          -7.1890    -1.2400     1.2660 hc         1 9CZ       0.051700
     40 H8          -6.4420    -2.1070    -0.0780 hc         1 9CZ       0.051700
     41 H9          -4.3130     0.6010     3.0700 ha         1 9CZ       0.168500
     42 H10         -4.9870     2.2890     2.7570 ha         1 9CZ       0.168500
     43 H11         -4.1730    -2.1720     0.1220 ha         1 9CZ       0.169000
     44 H12         -2.7060     0.3760     1.1100 ha         1 9CZ       0.173000
     45 H13          0.2720    -1.3360     1.4700 hc         1 9CZ       0.054700
     46 H14         -1.0250    -3.3120     0.8860 hc         1 9CZ       0.046700
     47 H15         -2.4310    -3.1800    -0.1480 hc         1 9CZ       0.046700
     48 H16         -0.3720    -3.8700    -1.3800 hc         1 9CZ       0.040700
     49 H17         -1.0800    -2.4100    -2.0220 hc         1 9CZ       0.040700
     50 H18          1.3750    -2.6270    -0.2150 hc         1 9CZ       0.041700
     51 H19          1.3470    -2.1500    -1.8990 hc         1 9CZ       0.041700
     52 H20          0.4930     0.1760    -2.5270 hc         1 9CZ       0.034367
     53 H21         -1.0820    -0.2040    -1.8430 hc         1 9CZ       0.034367
     54 H22         -0.2190     1.2240    -1.3110 hc         1 9CZ       0.034367
     55 H23          2.3900    -0.6620     0.6360 hc         1 9CZ       0.057700
     56 H24          1.9100     1.2800     1.8430 hc         1 9CZ       0.041700
     57 H25          1.2790     2.1360     0.4560 hc         1 9CZ       0.041700
     58 H26         -0.8750     1.4090     0.8540 hc         1 9CZ       0.043200
     59 H27         -0.3410     0.7850     2.4000 hc         1 9CZ       0.043200
     60 H28          2.3240     1.3670    -1.6270 hc         1 9CZ       0.048700
     61 H29          2.6930    -0.7870    -2.6510 hc         1 9CZ       0.035033
     62 H30          4.2730    -0.0550    -2.5150 hc         1 9CZ       0.035033
     63 H31          3.7800    -1.3100    -1.3780 hc         1 9CZ       0.035033
     64 H32          3.5010     2.1660     0.3460 h1         1 9CZ       0.044700
     65 H33          4.5960     2.1360    -2.3090 hc         1 9CZ       0.051700
     66 H34          4.9900     3.2210    -0.9900 hc         1 9CZ       0.051700
     67 H35          6.4160     0.6630    -1.7740 hc         1 9CZ       0.061200
     68 H36          7.1150     2.1640    -1.1610 hc         1 9CZ       0.061200
     69 H37          6.3750     1.7300     1.0760 h1         1 9CZ       0.041700
     70 H38          5.7450    -0.9770     2.3470 hc         1 9CZ       0.043033
     71 H39          7.4140    -1.5510     2.4110 hc         1 9CZ       0.043033
     72 H40          7.0370     0.1160     2.8340 hc         1 9CZ       0.043033
     73 H41          5.7130    -1.4760    -0.1320 ho         1 9CZ       0.515000
     74 H42          8.7750     0.8850     1.0680 hc         1 9CZ       0.043033
     75 H43          9.0980    -0.8130     0.7360 hc         1 9CZ       0.043033
     76 H44          8.6620     0.2770    -0.5840 hc         1 9CZ       0.043033
@<TRIPOS>BOND
     1     1     2 1   
     2     1    33 1   
     3     2     3 1   
     4     2     7 1   
     5     2    34 1   
     6     3     4 1   
     7     3    35 1   
     8     3    36 1   
     9     4     5 1   
    10     4     6 1   
    11     4    37 1   
    12     5    38 1   
    13     6     9 1   
    14     6    39 1   
    15     6    40 1   
    16     7     8 2   
    17     7     9 1   
    18     8    41 1   
    19     8    42 1   
    20     9    10 2   
    21    10    11 1   
    22    10    43 1   
    23    11    12 2   
    24    11    44 1   
    25    12    13 1   
    26    12    14 1   
    27    13    17 1   
    28    13    21 1   
    29    13    45 1   
    30    14    15 1   
    31    14    46 1   
    32    14    47 1   
    33    15    16 1   
    34    15    48 1   
    35    15    49 1   
    36    16    17 1   
    37    16    50 1   
    38    16    51 1   
    39    17    18 1   
    40    17    19 1   
    41    18    52 1   
    42    18    53 1   
    43    18    54 1   
    44    19    20 1   
    45    19    22 1   
    46    19    55 1   
    47    20    21 1   
    48    20    56 1   
    49    20    57 1   
    50    21    58 1   
    51    21    59 1   
    52    22    23 1   
    53    22    24 1   
    54    22    60 1   
    55    23    61 1   
    56    23    62 1   
    57    23    63 1   
    58    24    25 1   
    59    24    28 1   
    60    24    64 1   
    61    25    26 1   
    62    25    65 1   
    63    25    66 1   
    64    26    27 1   
    65    26    67 1   
    66    26    68 1   
    67    27    28 1   
    68    27    29 1   
    69    27    69 1   
    70    29    30 1   
    71    29    31 1   
    72    29    32 1   
    73    30    70 1   
    74    30    71 1   
    75    30    72 1   
    76    31    73 1   
    77    32    74 1   
    78    32    75 1   
    79    32    76 1   
@<TRIPOS>SUBSTRUCTURE
     1 9CZ         1 TEMP              0 ****  ****    0 ROOT
