@<TRIPOS>MOLECULE
9CZ
   76    79     1     0     0
SMALL
No Charge or Current Charge


@<TRIPOS>ATOM
      1 O3          -5.8680     2.3830    -0.3490 oh         1 9CZ      -0.656000
      2 C25         -6.4210     1.8330     0.8490 c6         1 9CZ       0.211500
      3 C24         -7.8020     1.1910     0.5720 c6         1 9CZ      -0.065400
      4 C23         -7.6800    -0.1030    -0.2690 c6         1 9CZ       0.176300
      5 O2          -8.9740    -0.6960    -0.4400 oh         1 9CZ      -0.662000
      6 C22         -6.7210    -1.1090     0.4150 c6         1 9CZ      -0.073200
      7 C26         -5.4390     0.8030     1.4280 ce         1 9CZ      -0.124200
      8 C27         -4.7480     1.0440     2.5640 c2         1 9CZ      -0.296000
      9 C21         -5.3530    -0.4690     0.6840 ce         1 9CZ      -0.067200
     10 C20         -4.1980    -1.0920     0.3010 cf         1 9CZ      -0.160000
     11 C19         -2.8410    -0.5700     0.4850 cf         1 9CZ      -0.193000
     12 C15         -1.6640    -1.2260     0.2750 c2         1 9CZ      -0.076400
     13 C2          -0.2820    -0.5870     0.5120 c5         1 9CZ      -0.037500
     14 C16         -1.5590    -2.6980    -0.1500 c6         1 9CZ      -0.042200
     15 C17         -0.6150    -2.8900    -1.3650 c6         1 9CZ      -0.071400
     16 C18          0.7480    -2.1660    -1.1760 c6         1 9CZ      -0.063400
     17 C1           0.5680    -0.6550    -0.8040 c5         1 9CZ      -0.037000
     18 C           -0.0580     0.0930    -2.0340 c3         1 9CZ      -0.080100
     19 C5           1.8520     0.0770    -0.2370 c5         1 9CZ      -0.051700
     20 C4           1.2290     1.2990     0.5460 c5         1 9CZ      -0.077400
     21 C3          -0.2570     0.9270     0.8410 c5         1 9CZ      -0.070400
     22 C6           3.0020     0.5070    -1.2190 c3         1 9CZ      -0.048700
     23 C14          3.5350    -0.6540    -2.1030 c3         1 9CZ      -0.083100
     24 C7           4.1720     1.2540    -0.4970 c5         1 9CZ       0.167300
     25 C13          5.2140     1.9810    -1.4150 c5         1 9CZ      -0.110400
     26 C12          6.5650     1.3110    -1.0330 c5         1 9CZ      -0.106400
     27 C8           6.2690     0.8750     0.4250 c5         1 9CZ       0.134300
     28 O            4.9490     0.3190     0.2830 os         1 9CZ      -0.471000
     29 C9           7.2290    -0.1790     1.0760 c3         1 9CZ       0.191000
     30 C11          6.7950    -0.5220     2.5210 c3         1 9CZ      -0.099100
     31 O1           7.1470    -1.3810     0.3070 oh         1 9CZ      -0.722000
     32 C10          8.7030     0.2910     1.0670 c3         1 9CZ      -0.099100
     33 H1          -4.9100     2.4920    -0.1700 ho         1 9CZ       0.444000
     34 H2          -6.5660     2.6400     1.5830 h1         1 9CZ       0.036700
     35 H3          -8.2840     0.9590     1.5310 hc         1 9CZ       0.062200
     36 H4          -8.4540     1.9130     0.0630 hc         1 9CZ       0.062200
     37 H5          -7.2600     0.1610    -1.2510 h1         1 9CZ       0.048700
     38 H6          -8.8540    -1.4660    -1.0390 ho         1 9CZ       0.442000
     39 H7          -7.1520    -1.4500     1.3670 hc         1 9CZ       0.051700
     40 H8          -6.6140    -2.0030    -0.2140 hc         1 9CZ       0.051700
     41 H9          -4.0730     0.3010     2.9900 ha         1 9CZ       0.168500
     42 H10         -4.8400     1.9840     3.1090 ha         1 9CZ       0.168500
     43 H11         -4.3070    -2.0440    -0.2130 ha         1 9CZ       0.169000
     44 H12         -2.8040     0.4610     0.8290 ha         1 9CZ       0.173000
     45 H13          0.2120    -1.1370     1.3230 hc         1 9CZ       0.054700
     46 H14         -1.1660    -3.2760     0.6980 hc         1 9CZ       0.046700
     47 H15         -2.5290    -3.1470    -0.3840 hc         1 9CZ       0.046700
     48 H16         -0.4410    -3.9620    -1.5290 hc         1 9CZ       0.040700
     49 H17         -1.1100    -2.5260    -2.2750 hc         1 9CZ       0.040700
     50 H18          1.3170    -2.6750    -0.3850 hc         1 9CZ       0.041700
     51 H19          1.3300    -2.2890    -2.0950 hc         1 9CZ       0.041700
     52 H20          0.5020    -0.1200    -2.9520 hc         1 9CZ       0.034367
     53 H21         -1.0980    -0.2030    -2.2120 hc         1 9CZ       0.034367
     54 H22         -0.0540     1.1820    -1.9150 hc         1 9CZ       0.034367
     55 H23          2.3400    -0.5870     0.4880 hc         1 9CZ       0.057700
     56 H24          1.7810     1.4880     1.4740 hc         1 9CZ       0.041700
     57 H25          1.2770     2.2270    -0.0360 hc         1 9CZ       0.041700
     58 H26         -0.9320     1.5120     0.2060 hc         1 9CZ       0.043200
     59 H27         -0.5380     1.1290     1.8810 hc         1 9CZ       0.043200
     60 H28          2.5680     1.2360    -1.9140 hc         1 9CZ       0.048700
     61 H29          2.8160    -0.9060    -2.8880 hc         1 9CZ       0.035033
     62 H30          4.4650    -0.3830    -2.6140 hc         1 9CZ       0.035033
     63 H31          3.7340    -1.5480    -1.5000 hc         1 9CZ       0.035033
     64 H32          3.7490     1.9950     0.1930 h1         1 9CZ       0.044700
     65 H33          4.9930     1.8900    -2.4840 hc         1 9CZ       0.051700
     66 H34          5.2290     3.0540    -1.1920 hc         1 9CZ       0.051700
     67 H35          6.7840     0.4540    -1.6800 hc         1 9CZ       0.061200
     68 H36          7.4110     2.0050    -1.1040 hc         1 9CZ       0.061200
     69 H37          6.2110     1.7520     1.0840 h1         1 9CZ       0.041700
     70 H38          5.7690    -0.9090     2.5460 hc         1 9CZ       0.043033
     71 H39          7.4530    -1.2820     2.9590 hc         1 9CZ       0.043033
     72 H40          6.8350     0.3690     3.1580 hc         1 9CZ       0.043033
     73 H41          6.2170    -1.3790    -0.0230 ho         1 9CZ       0.515000
     74 H42          8.8120     1.2330     1.6180 hc         1 9CZ       0.043033
     75 H43          9.3550    -0.4560     1.5380 hc         1 9CZ       0.043033
     76 H44          9.0630     0.4510     0.0440 hc         1 9CZ       0.043033
@<TRIPOS>BOND
     1     1     2 1   
     2     1    33 1   
     3     2     3 1   
     4     2     7 1   
     5     2    34 1   
     6     3     4 1   
     7     3    35 1   
     8     3    36 1   
     9     4     5 1   
    10     4     6 1   
    11     4    37 1   
    12     5    38 1   
    13     6     9 1   
    14     6    39 1   
    15     6    40 1   
    16     7     8 2   
    17     7     9 1   
    18     8    41 1   
    19     8    42 1   
    20     9    10 2   
    21    10    11 1   
    22    10    43 1   
    23    11    12 2   
    24    11    44 1   
    25    12    13 1   
    26    12    14 1   
    27    13    17 1   
    28    13    21 1   
    29    13    45 1   
    30    14    15 1   
    31    14    46 1   
    32    14    47 1   
    33    15    16 1   
    34    15    48 1   
    35    15    49 1   
    36    16    17 1   
    37    16    50 1   
    38    16    51 1   
    39    17    18 1   
    40    17    19 1   
    41    18    52 1   
    42    18    53 1   
    43    18    54 1   
    44    19    20 1   
    45    19    22 1   
    46    19    55 1   
    47    20    21 1   
    48    20    56 1   
    49    20    57 1   
    50    21    58 1   
    51    21    59 1   
    52    22    23 1   
    53    22    24 1   
    54    22    60 1   
    55    23    61 1   
    56    23    62 1   
    57    23    63 1   
    58    24    25 1   
    59    24    28 1   
    60    24    64 1   
    61    25    26 1   
    62    25    65 1   
    63    25    66 1   
    64    26    27 1   
    65    26    67 1   
    66    26    68 1   
    67    27    28 1   
    68    27    29 1   
    69    27    69 1   
    70    29    30 1   
    71    29    31 1   
    72    29    32 1   
    73    30    70 1   
    74    30    71 1   
    75    30    72 1   
    76    31    73 1   
    77    32    74 1   
    78    32    75 1   
    79    32    76 1   
@<TRIPOS>SUBSTRUCTURE
     1 9CZ         1 TEMP              0 ****  ****    0 ROOT
