@<TRIPOS>MOLECULE
9D0
   60    62     1     0     0
SMALL
No Charge or Current Charge


@<TRIPOS>ATOM
      1 CAA         11.4050     4.4960    -0.2160 c3         1 9D0      -0.088100
      2 CAJ         10.9600     3.0220    -0.2840 c3         1 9D0      -0.074400
      3 CAK          9.4310     2.8450    -0.1570 c3         1 9D0      -0.076400
      4 CAL          8.9860     1.3680    -0.2260 c3         1 9D0      -0.074400
      5 CAM          7.4570     1.1910    -0.0990 c3         1 9D0      -0.074400
      6 CAN          7.0120    -0.2870    -0.1680 c3         1 9D0      -0.073400
      7 CAO          5.4830    -0.4650    -0.0410 c3         1 9D0      -0.080400
      8 CAP          5.0440    -1.9410    -0.1110 c3         1 9D0       0.162800
      9 NAT          3.5800    -2.0440     0.0120 n7         1 9D0      -0.865400
     10 CAQ          3.0420    -3.4140    -0.0470 c3         1 9D0       0.208100
     11 CAY          1.5300    -3.4050     0.1400 ca         1 9D0      -0.083300
     12 CAE          0.6790    -3.1770    -0.9590 ca         1 9D0      -0.102000
     13 CAG         -0.7160    -3.1730    -0.7890 ca         1 9D0      -0.093000
     14 CAD          0.9680    -3.6250     1.4120 ca         1 9D0      -0.102000
     15 CAF         -0.4280    -3.6210     1.5830 ca         1 9D0      -0.093000
     16 CAZ         -1.2780    -3.3970     0.4830 ca         1 9D0      -0.112300
     17 CAR         -2.7880    -3.3880     0.6670 c3         1 9D0       0.156300
     18 NAU         -3.2800    -2.0420     0.9590 ns         1 9D0      -0.504900
     19 CAX         -3.7790    -1.1580     0.0230 c          1 9D0       0.634700
     20 OAB         -3.8660    -1.4940    -1.1470 o          1 9D0      -0.565100
     21 CBA         -4.1760     0.1820     0.6040 cc         1 9D0      -0.098600
     22 CBD         -4.7350     1.3300    -0.0990 cc         1 9D0      -0.207600
     23 CBB         -5.0490     1.4600    -1.5470 c          1 9D0       0.593600
     24 OAC         -4.8990     0.6290    -2.4230 o          1 9D0      -0.505000
     25 NAV         -5.5590     2.6720    -1.8580 ns         1 9D0      -0.421400
     26 CAH         -5.7750     3.6820    -0.9690 cc         1 9D0       0.505800
     27 NAS         -5.5080     3.6060     0.3330 nd         1 9D0      -0.601100
     28 CBC         -4.9740     2.3870     0.7590 cd         1 9D0       0.059400
     29 SAW         -4.5420     2.0550     2.4390 ss         1 9D0       0.284000
     30 CAI         -4.0230     0.4370     1.9620 cd         1 9D0      -0.247000
     31 H1          11.1110     4.9460     0.7400 hc         1 9D0       0.031367
     32 H2          12.4950     4.5710    -0.3100 hc         1 9D0       0.031367
     33 H3          10.9500     5.0770    -1.0270 hc         1 9D0       0.031367
     34 H4          11.2990     2.5920    -1.2350 hc         1 9D0       0.036200
     35 H5          11.4590     2.4620     0.5160 hc         1 9D0       0.036200
     36 H6           9.0960     3.2790     0.7930 hc         1 9D0       0.037700
     37 H7           8.9360     3.4080    -0.9580 hc         1 9D0       0.037700
     38 H8           9.3210     0.9350    -1.1770 hc         1 9D0       0.036700
     39 H9           9.4820     0.8050     0.5750 hc         1 9D0       0.036700
     40 H10          7.1220     1.6240     0.8520 hc         1 9D0       0.038700
     41 H11          6.9620     1.7540    -0.9000 hc         1 9D0       0.038700
     42 H12          7.3470    -0.7200    -1.1190 hc         1 9D0       0.037200
     43 H13          7.5070    -0.8500     0.6330 hc         1 9D0       0.037200
     44 H14          5.1480    -0.0330     0.9100 hc         1 9D0       0.046700
     45 H15          4.9870     0.0960    -0.8430 hc         1 9D0       0.046700
     46 H16          5.3770    -2.3690    -1.0670 h1         1 9D0       0.027200
     47 H17          5.5350    -2.5010     0.6970 h1         1 9D0       0.027200
     48 H18          3.3050    -1.6420     0.9150 hn         1 9D0       0.412000
     49 H20          3.2810    -3.8790    -1.0140 h1         1 9D0       0.034200
     50 H21          3.4960    -4.0380     0.7350 h1         1 9D0       0.034200
     51 H22          1.1020    -3.0010    -1.9460 ha         1 9D0       0.119000
     52 H23         -1.3610    -2.9930    -1.6460 ha         1 9D0       0.114500
     53 H24          1.6120    -3.8000     2.2710 ha         1 9D0       0.119000
     54 H25         -0.8480    -3.7920     2.5720 ha         1 9D0       0.114500
     55 H26         -3.2790    -3.7810    -0.2340 h1         1 9D0       0.058700
     56 H27         -3.0610    -4.0480     1.5010 h1         1 9D0       0.058700
     57 H28         -3.2240    -1.7090     1.9110 hn         1 9D0       0.316500
     58 H29         -6.1910     4.5680    -1.4320 h5         1 9D0       0.050800
     59 H31         -3.6390    -0.2090     2.7410 h4         1 9D0       0.158000
     60 H19         -5.7920     2.8200    -2.8280 hn         1 9D0       0.332500
@<TRIPOS>BOND
     1     1     2 1   
     2     1    31 1   
     3     1    32 1   
     4     1    33 1   
     5     2     3 1   
     6     2    34 1   
     7     2    35 1   
     8     3     4 1   
     9     3    36 1   
    10     3    37 1   
    11     4     5 1   
    12     4    38 1   
    13     4    39 1   
    14     5     6 1   
    15     5    40 1   
    16     5    41 1   
    17     6     7 1   
    18     6    42 1   
    19     6    43 1   
    20     7     8 1   
    21     7    44 1   
    22     7    45 1   
    23     8     9 1   
    24     8    46 1   
    25     8    47 1   
    26     9    10 1   
    27     9    48 1   
    28    10    11 1   
    29    10    49 1   
    30    10    50 1   
    31    11    12 ar  
    32    11    14 ar  
    33    12    13 ar  
    34    12    51 1   
    35    13    16 ar  
    36    13    52 1   
    37    14    15 ar  
    38    14    53 1   
    39    15    16 ar  
    40    15    54 1   
    41    16    17 1   
    42    17    18 1   
    43    17    55 1   
    44    17    56 1   
    45    18    19 1   
    46    18    57 1   
    47    19    20 2   
    48    19    21 1   
    49    21    22 1   
    50    21    30 2   
    51    22    23 1   
    52    22    28 2   
    53    23    24 2   
    54    23    25 1   
    55    25    26 1   
    56    25    60 1   
    57    26    27 2   
    58    26    58 1   
    59    27    28 1   
    60    28    29 1   
    61    29    30 1   
    62    30    59 1   
@<TRIPOS>SUBSTRUCTURE
     1 9D0         1 TEMP              0 ****  ****    0 ROOT
