@<TRIPOS>MOLECULE
9D0
   60    62     1     0     0
SMALL
abcg2


@<TRIPOS>ATOM
      1 CAA         11.9740     3.8710    -0.9570 c3         1 9D0      -0.088100
      2 CAJ         11.3920     2.5610    -0.4420 c3         1 9D0      -0.074400
      3 CAK          9.8750     2.4980    -0.5730 c3         1 9D0      -0.076400
      4 CAL          9.2770     1.1910    -0.0670 c3         1 9D0      -0.074400
      5 CAM          7.7610     1.1330    -0.2060 c3         1 9D0      -0.074400
      6 CAN          7.1570    -0.1720     0.2980 c3         1 9D0      -0.073400
      7 CAO          5.6450    -0.2320     0.1210 c3         1 9D0      -0.080400
      8 CAP          5.0410    -1.5330     0.6250 c3         1 9D0       0.162800
      9 NAT          3.6120    -1.5770     0.3780 n7         1 9D0      -0.865400
     10 CAQ          2.9890    -2.7970     0.8460 c3         1 9D0       0.208100
     11 CAY          1.5320    -2.8630     0.4660 ca         1 9D0      -0.083300
     12 CAE          1.1110    -2.4910    -0.8090 ca         1 9D0      -0.102000
     13 CAG         -0.2260    -2.5810    -1.1680 ca         1 9D0      -0.093000
     14 CAD          0.5770    -3.3210     1.3690 ca         1 9D0      -0.102000
     15 CAF         -0.7590    -3.4150     1.0070 ca         1 9D0      -0.093000
     16 CAZ         -1.1780    -3.0470    -0.2670 ca         1 9D0      -0.112300
     17 CAR         -2.6350    -3.1320    -0.6470 c3         1 9D0       0.156300
     18 NAU         -3.4430    -2.1340     0.0260 ns         1 9D0      -0.504900
     19 CAX         -3.4240    -0.8410    -0.3260 c          1 9D0       0.634700
     20 OAB         -2.8000    -0.4050    -1.2790 o          1 9D0      -0.565100
     21 CBA         -4.2010     0.0600     0.5740 cc         1 9D0      -0.098600
     22 CBD         -5.1800     1.0120     0.1560 cc         1 9D0      -0.207600
     23 CBB         -5.8000     1.1740    -1.1380 c          1 9D0       0.593600
     24 OAC         -5.6000     0.5140    -2.1390 o          1 9D0      -0.505000
     25 NAV         -6.7260     2.2130    -1.1320 ns         1 9D0      -0.421400
     26 CAH         -7.0600     2.9480    -0.0510 cc         1 9D0       0.505800
     27 NAS         -6.5530     2.7840     1.1250 nd         1 9D0      -0.601100
     28 CBC         -5.6240     1.8060     1.1980 cd         1 9D0       0.059400
     29 SAW         -4.8510     1.3930     2.6810 ss         1 9D0       0.284000
     30 CAI         -3.9440     0.1540     1.9050 cd         1 9D0      -0.247000
     31 H1          11.5540     4.7250    -0.4220 hc         1 9D0       0.031367
     32 H2          13.0570     3.9050    -0.8370 hc         1 9D0       0.031367
     33 H3          11.7550     4.0090    -2.0180 hc         1 9D0       0.031367
     34 H4          11.8370     1.7220    -0.9860 hc         1 9D0       0.036200
     35 H5          11.6700     2.4230     0.6080 hc         1 9D0       0.036200
     36 H6           9.4280     3.3370    -0.0280 hc         1 9D0       0.037700
     37 H7           9.5970     2.6400    -1.6240 hc         1 9D0       0.037700
     38 H8           9.7240     0.3520    -0.6110 hc         1 9D0       0.036700
     39 H9           9.5510     1.0500     0.9850 hc         1 9D0       0.036700
     40 H10          7.3130     1.9730     0.3360 hc         1 9D0       0.038700
     41 H11          7.4890     1.2740    -1.2590 hc         1 9D0       0.038700
     42 H12          7.6180    -1.0130    -0.2320 hc         1 9D0       0.037200
     43 H13          7.4100    -0.3040     1.3560 hc         1 9D0       0.037200
     44 H14          5.1830     0.6110     0.6480 hc         1 9D0       0.046700
     45 H15          5.3930    -0.1110    -0.9370 hc         1 9D0       0.046700
     46 H16          5.5030    -2.3740     0.0970 h1         1 9D0       0.027200
     47 H17          5.2930    -1.6650     1.6900 h1         1 9D0       0.027200
     48 H18          3.1710    -0.7870     0.8340 hn         1 9D0       0.412000
     49 H20          3.5140    -3.6390     0.3810 h1         1 9D0       0.034200
     50 H21          3.0880    -2.9480     1.9320 h1         1 9D0       0.034200
     51 H22          1.8360    -2.1200    -1.5220 ha         1 9D0       0.119000
     52 H23         -0.5340    -2.2810    -2.1620 ha         1 9D0       0.114500
     53 H24          0.8800    -3.6110     2.3680 ha         1 9D0       0.119000
     54 H25         -1.4820    -3.7790     1.7290 ha         1 9D0       0.114500
     55 H26         -2.7520    -3.0280    -1.7260 h1         1 9D0       0.058700
     56 H27         -3.0420    -4.1040    -0.3720 h1         1 9D0       0.058700
     57 H28         -4.0110    -2.4220     0.8060 hn         1 9D0       0.316500
     58 H29         -7.8080     3.7120    -0.2170 h5         1 9D0       0.050800
     59 H31         -3.2330    -0.4220     2.4770 h4         1 9D0       0.158000
     60 H19         -7.2070     2.4050    -2.0020 hn         1 9D0       0.332500
@<TRIPOS>BOND
     1     1     2 1   
     2     1    31 1   
     3     1    32 1   
     4     1    33 1   
     5     2     3 1   
     6     2    34 1   
     7     2    35 1   
     8     3     4 1   
     9     3    36 1   
    10     3    37 1   
    11     4     5 1   
    12     4    38 1   
    13     4    39 1   
    14     5     6 1   
    15     5    40 1   
    16     5    41 1   
    17     6     7 1   
    18     6    42 1   
    19     6    43 1   
    20     7     8 1   
    21     7    44 1   
    22     7    45 1   
    23     8     9 1   
    24     8    46 1   
    25     8    47 1   
    26     9    10 1   
    27     9    48 1   
    28    10    11 1   
    29    10    49 1   
    30    10    50 1   
    31    11    12 ar  
    32    11    14 ar  
    33    12    13 ar  
    34    12    51 1   
    35    13    16 ar  
    36    13    52 1   
    37    14    15 ar  
    38    14    53 1   
    39    15    16 ar  
    40    15    54 1   
    41    16    17 1   
    42    17    18 1   
    43    17    55 1   
    44    17    56 1   
    45    18    19 1   
    46    18    57 1   
    47    19    20 2   
    48    19    21 1   
    49    21    22 1   
    50    21    30 2   
    51    22    23 1   
    52    22    28 2   
    53    23    24 2   
    54    23    25 1   
    55    25    26 1   
    56    25    60 1   
    57    26    27 2   
    58    26    58 1   
    59    27    28 1   
    60    28    29 1   
    61    29    30 1   
    62    30    59 1   
@<TRIPOS>SUBSTRUCTURE
     1 9D0         1 TEMP              0 ****  ****    0 ROOT
