@<TRIPOS>MOLECULE
9D1
   57    61     1     0     0
SMALL
abcg2


@<TRIPOS>ATOM
      1 N1          -4.2920    -2.9560     0.2690 n3         1 9D1      -0.718600
      2 N3           8.0800    -0.0940    -0.1670 nb         1 9D1      -0.664000
      3 C4          -3.0790    -0.8750    -0.2140 c3         1 9D1       0.229800
      4 C5          -3.2960    -2.0330     0.7550 c3         1 9D1       0.146800
      5 C6          -4.6590    -3.9670     1.2460 c5         1 9D1       0.156300
      6 C7          -5.4920    -4.9580     0.4400 c5         1 9D1      -0.079400
      7 C8          -4.9160    -4.8530    -0.9880 c5         1 9D1      -0.079400
      8 C10         -0.8230    -0.0910     0.1250 cc         1 9D1       0.657100
      9 C13          3.2870    -1.7620    -1.0040 ca         1 9D1      -0.082000
     10 C15          2.9780     0.3080     0.1940 ca         1 9D1      -0.039000
     11 C17          5.2940    -0.4490    -0.3060 cp         1 9D1       0.015000
     12 C20          7.5310    -1.3040    -0.1420 ca         1 9D1       0.333900
     13 C21          6.1670    -1.5330    -0.2070 ca         1 9D1      -0.159500
     14 C22         -2.5890     2.6090    -1.0480 ca         1 9D1      -0.128000
     15 C24         -2.5560     5.0230    -0.9420 ca         1 9D1      -0.138000
     16 C           -2.5340     4.9570     0.4500 ca         1 9D1       0.142100
     17 C23         -2.5820     3.8490    -1.6750 ca         1 9D1      -0.072000
     18 C2          -2.5690     2.5450     0.3390 ca         1 9D1      -0.073300
     19 C1          -2.5380     3.7190     1.0830 ca         1 9D1      -0.202000
     20 C3          -2.6220     1.2250     1.0750 c3         1 9D1       0.268100
     21 N           -2.1360     0.1010     0.3080 nh         1 9D1      -0.739600
     22 C9          -3.8930    -3.7140    -0.9070 c5         1 9D1       0.156300
     23 S            0.3330     1.0930     0.7450 ss         1 9D1      -0.014200
     24 C16          1.6140     0.0980     0.1190 ca         1 9D1      -0.208000
     25 C11          1.0580    -1.0290    -0.5120 ca         1 9D1       0.157400
     26 N2          -0.3060    -1.1080    -0.4950 nd         1 9D1      -0.645100
     27 C14          3.8350    -0.6350    -0.3740 cp         1 9D1      -0.063000
     28 C12          1.9230    -1.9630    -1.0810 ca         1 9D1      -0.087000
     29 C19          7.2520     0.9400    -0.2610 ca         1 9D1       0.333900
     30 C18          5.8740     0.8200    -0.3340 ca         1 9D1      -0.159500
     31 H2          -2.7100    -1.2310    -1.1760 h1         1 9D1       0.067700
     32 H3          -4.0260    -0.3640    -0.3970 h1         1 9D1       0.067700
     33 H4          -3.6390    -1.6280     1.7120 h1         1 9D1       0.040200
     34 H5          -2.3320    -2.5330     0.9460 h1         1 9D1       0.040200
     35 H6          -3.7680    -4.4680     1.6620 h1         1 9D1       0.037700
     36 H7          -5.2040    -3.5230     2.0830 h1         1 9D1       0.037700
     37 H8          -5.4270    -5.9670     0.8480 hc         1 9D1       0.046700
     38 H9          -6.5440    -4.6710     0.4530 hc         1 9D1       0.046700
     39 H10         -4.4440    -5.7790    -1.3140 hc         1 9D1       0.046700
     40 H11         -5.7020    -4.6260    -1.7080 hc         1 9D1       0.046700
     41 H12          3.9450    -2.4880    -1.4640 ha         1 9D1       0.117000
     42 H13          3.3700     1.1770     0.7060 ha         1 9D1       0.123000
     43 H14          8.2120    -2.1430    -0.0590 h4         1 9D1       0.018100
     44 H15          5.7980    -2.5490    -0.1590 ha         1 9D1       0.123500
     45 H16         -2.6030     1.7070    -1.6450 ha         1 9D1       0.124000
     46 H17         -2.5470     5.9850    -1.4380 ha         1 9D1       0.131000
     47 H18         -2.4910     5.9490     2.0830 ho         1 9D1       0.465000
     48 H19         -2.5950     3.9010    -2.7560 ha         1 9D1       0.118000
     49 H20         -2.5130     3.6670     2.1680 ha         1 9D1       0.111000
     50 H21         -2.0810     1.3020     2.0240 h1         1 9D1       0.065200
     51 H22         -3.6560     1.0060     1.3490 h1         1 9D1       0.065200
     52 H23         -3.8890    -3.0930    -1.8050 h1         1 9D1       0.037700
     53 H24         -2.8740    -4.1210    -0.7910 h1         1 9D1       0.037700
     54 H25          1.5210    -2.8370    -1.5780 ha         1 9D1       0.130000
     55 H26          7.7060     1.9250    -0.2880 h4         1 9D1       0.018100
     56 H27          5.2690     1.7110    -0.4340 ha         1 9D1       0.123500
     57 O           -2.5020     6.1180     1.1340 oh         1 9D1      -0.532100
@<TRIPOS>BOND
     1     1     4 1   
     2     1     5 1   
     3     1    22 1   
     4     2    12 ar  
     5     2    29 ar  
     6     3     4 1   
     7     3    21 1   
     8     3    31 1   
     9     3    32 1   
    10     4    33 1   
    11     4    34 1   
    12     5     6 1   
    13     5    35 1   
    14     5    36 1   
    15     6     7 1   
    16     6    37 1   
    17     6    38 1   
    18     7    22 1   
    19     7    39 1   
    20     7    40 1   
    21     8    21 1   
    22     8    23 1   
    23     8    26 2   
    24     9    27 ar  
    25     9    28 ar  
    26     9    41 1   
    27    10    24 ar  
    28    10    27 ar  
    29    10    42 1   
    30    11    13 ar  
    31    11    27 1   
    32    11    30 ar  
    33    12    13 ar  
    34    12    43 1   
    35    13    44 1   
    36    14    17 ar  
    37    14    18 ar  
    38    14    45 1   
    39    15    16 ar  
    40    15    17 ar  
    41    15    46 1   
    42    16    19 ar  
    43    16    57 1   
    44    17    48 1   
    45    18    19 ar  
    46    18    20 1   
    47    19    49 1   
    48    20    21 1   
    49    20    50 1   
    50    20    51 1   
    51    22    52 1   
    52    22    53 1   
    53    23    24 1   
    54    24    25 ar  
    55    25    26 1   
    56    25    28 ar  
    57    28    54 1   
    58    29    30 ar  
    59    29    55 1   
    60    30    56 1   
    61    47    57 1   
@<TRIPOS>SUBSTRUCTURE
     1 9D1         1 TEMP              0 ****  ****    0 ROOT
