@<TRIPOS>MOLECULE
9D1
   57    61     1     0     0
SMALL
No Charge or Current Charge


@<TRIPOS>ATOM
      1 N1          -4.3550    -3.1280     0.2990 n3         1 9D1      -0.718600
      2 N3           8.1830     0.0970    -0.0740 nb         1 9D1      -0.664000
      3 C4          -3.1330    -0.9220    -0.1690 c3         1 9D1       0.229800
      4 C5          -3.3460    -2.1420     0.7680 c3         1 9D1       0.146800
      5 C6          -4.6180    -4.2410     1.2330 c5         1 9D1       0.156300
      6 C7          -5.6260    -5.0910     0.4170 c5         1 9D1      -0.079400
      7 C8          -5.2000    -4.8500    -1.0660 c5         1 9D1      -0.079400
      8 C10         -0.8110    -0.0470     0.2060 cc         1 9D1       0.657100
      9 C13          3.3420    -1.6770    -0.9680 ca         1 9D1      -0.082000
     10 C15          2.9750     0.3650     0.3050 ca         1 9D1      -0.039000
     11 C17          5.3640    -0.3250    -0.2180 cp         1 9D1       0.015000
     12 C20          7.6610    -1.1500    -0.0970 ca         1 9D1       0.333900
     13 C21          6.2810    -1.4020    -0.1680 ca         1 9D1      -0.159500
     14 C22         -3.1120     2.6640    -1.0160 ca         1 9D1      -0.128000
     15 C24         -2.4640     5.0080    -1.0870 ca         1 9D1      -0.138000
     16 C           -2.0170     4.9220     0.2400 ca         1 9D1       0.142100
     17 C23         -3.0130     3.8780    -1.7170 ca         1 9D1      -0.072000
     18 C2          -2.6620     2.5680     0.3170 ca         1 9D1      -0.073300
     19 C1          -2.1150     3.7100     0.9410 ca         1 9D1      -0.202000
     20 C3          -2.7660     1.2460     1.0780 c3         1 9D1       0.268100
     21 N           -2.1810     0.0900     0.3610 nh         1 9D1      -0.739600
     22 C9          -4.0330    -3.8310    -0.9620 c5         1 9D1       0.156300
     23 S            0.3350     1.1380     0.8980 ss         1 9D1      -0.014200
     24 C16          1.5950     0.1290     0.2170 ca         1 9D1      -0.208000
     25 C11          1.0800    -0.9680    -0.4390 ca         1 9D1       0.157400
     26 N2          -0.3020    -1.0920    -0.4570 nd         1 9D1      -0.645100
     27 C14          3.8840    -0.5470    -0.2940 cp         1 9D1      -0.063000
     28 C12          1.9500    -1.8870    -1.0410 ca         1 9D1      -0.087000
     29 C19          7.3200     1.1370    -0.1220 ca         1 9D1       0.333900
     30 C18          5.9270     0.9730    -0.1920 ca         1 9D1      -0.159500
     31 H2          -2.7910    -1.2820    -1.1480 h1         1 9D1       0.067700
     32 H3          -4.1130    -0.4580    -0.3430 h1         1 9D1       0.067700
     33 H4          -3.6520    -1.7560     1.7490 h1         1 9D1       0.040200
     34 H5          -2.3780    -2.6410     0.9100 h1         1 9D1       0.040200
     35 H6          -3.7000    -4.8090     1.4470 h1         1 9D1       0.037700
     36 H7          -5.0410    -3.9010     2.1880 h1         1 9D1       0.037700
     37 H8          -5.5880    -6.1490     0.7000 hc         1 9D1       0.046700
     38 H9          -6.6530    -4.7470     0.5870 hc         1 9D1       0.046700
     39 H10         -4.8850    -5.7720    -1.5660 hc         1 9D1       0.046700
     40 H11         -6.0330    -4.4360    -1.6470 hc         1 9D1       0.046700
     41 H12          4.0040    -2.3910    -1.4520 ha         1 9D1       0.117000
     42 H13          3.3380     1.2370     0.8440 ha         1 9D1       0.123000
     43 H14          8.3730    -1.9740    -0.0530 h4         1 9D1       0.018100
     44 H15          5.9340    -2.4300    -0.1690 ha         1 9D1       0.123500
     45 H16         -3.5360     1.7940    -1.5120 ha         1 9D1       0.124000
     46 H17         -2.3860     5.9480    -1.6270 ha         1 9D1       0.131000
     47 H18         -1.2360     5.7770     1.7620 ho         1 9D1       0.465000
     48 H19         -3.3600     3.9430    -2.7450 ha         1 9D1       0.118000
     49 H20         -1.7670     3.6480     1.9700 ha         1 9D1       0.111000
     50 H21         -2.2820     1.3510     2.0580 h1         1 9D1       0.065200
     51 H22         -3.8290     1.0620     1.2890 h1         1 9D1       0.065200
     52 H23         -4.0010    -3.1580    -1.8300 h1         1 9D1       0.037700
     53 H24         -3.0650    -4.3470    -0.8930 h1         1 9D1       0.037700
     54 H25          1.5520    -2.7540    -1.5630 ha         1 9D1       0.130000
     55 H26          7.7600     2.1330    -0.1060 h4         1 9D1       0.018100
     56 H27          5.2960     1.8550    -0.2420 ha         1 9D1       0.123500
     57 O           -1.4870     6.0210     0.8460 oh         1 9D1      -0.532100
@<TRIPOS>BOND
     1     1     4 1   
     2     1     5 1   
     3     1    22 1   
     4     2    12 ar  
     5     2    29 ar  
     6     3     4 1   
     7     3    21 1   
     8     3    31 1   
     9     3    32 1   
    10     4    33 1   
    11     4    34 1   
    12     5     6 1   
    13     5    35 1   
    14     5    36 1   
    15     6     7 1   
    16     6    37 1   
    17     6    38 1   
    18     7    22 1   
    19     7    39 1   
    20     7    40 1   
    21     8    21 1   
    22     8    23 1   
    23     8    26 2   
    24     9    27 ar  
    25     9    28 ar  
    26     9    41 1   
    27    10    24 ar  
    28    10    27 ar  
    29    10    42 1   
    30    11    13 ar  
    31    11    27 1   
    32    11    30 ar  
    33    12    13 ar  
    34    12    43 1   
    35    13    44 1   
    36    14    17 ar  
    37    14    18 ar  
    38    14    45 1   
    39    15    16 ar  
    40    15    17 ar  
    41    15    46 1   
    42    16    19 ar  
    43    16    57 1   
    44    17    48 1   
    45    18    19 ar  
    46    18    20 1   
    47    19    49 1   
    48    20    21 1   
    49    20    50 1   
    50    20    51 1   
    51    22    52 1   
    52    22    53 1   
    53    23    24 1   
    54    24    25 ar  
    55    25    26 1   
    56    25    28 ar  
    57    28    54 1   
    58    29    30 ar  
    59    29    55 1   
    60    30    56 1   
    61    47    57 1   
@<TRIPOS>SUBSTRUCTURE
     1 9D1         1 TEMP              0 ****  ****    0 ROOT
