@<TRIPOS>MOLECULE
9D2
   23    22     1     0     0
SMALL
bcc


@<TRIPOS>ATOM
      1 C4          -1.2110     0.0090    -0.9310 c3         1 9D2       0.145400
      2 C5           1.2360    -0.0020    -0.9090 c3         1 9D2       0.145400
      3 C            0.0130     2.5900     0.2320 c3         1 9D2      -0.084100
      4 O           -0.0110    -2.4090     0.1240 oh         1 9D2      -0.602133
      5 C1           0.0020     1.2340     0.9280 c3         1 9D2      -0.065400
      6 C2           0.0040     0.0040     0.0010 c3         1 9D2      -0.040000
      7 C3          -0.0090    -1.2340     0.9030 c3         1 9D2       0.145400
      8 O1          -2.4000     0.0460    -0.1750 oh         1 9D2      -0.602133
      9 O2           2.4100     0.0220    -0.1310 oh         1 9D2      -0.602133
     10 H1          -1.1430     0.8790    -1.5980 h1         1 9D2       0.026033
     11 H2          -1.1770    -0.8790    -1.5730 h1         1 9D2       0.026033
     12 H3           1.2040    -0.8890    -1.5530 h1         1 9D2       0.026033
     13 H4           1.1890     0.8700    -1.5760 h1         1 9D2       0.026033
     14 H5           0.9010     2.7250    -0.3880 hc         1 9D2       0.030700
     15 H6          -0.8590     2.7320    -0.4060 hc         1 9D2       0.030700
     16 H7           0.0080     3.3920     0.9700 hc         1 9D2       0.030700
     17 H8          -0.0090    -3.1630     0.7200 ho         1 9D2       0.403667
     18 H9           0.8680     1.1710     1.5920 hc         1 9D2       0.050700
     19 H10         -0.8740     1.1790     1.5790 hc         1 9D2       0.050700
     20 H11         -0.8930    -1.1870     1.5520 h1         1 9D2       0.026033
     21 H12          0.8670    -1.1970     1.5620 h1         1 9D2       0.026033
     22 H13         -3.1410     0.0130    -0.7860 ho         1 9D2       0.403667
     23 H14          3.1630    -0.0120    -0.7280 ho         1 9D2       0.403667
@<TRIPOS>BOND
     1     1     6 1   
     2     1     8 1   
     3     1    10 1   
     4     1    11 1   
     5     2     6 1   
     6     2     9 1   
     7     2    12 1   
     8     2    13 1   
     9     3     5 1   
    10     3    14 1   
    11     3    15 1   
    12     3    16 1   
    13     4     7 1   
    14     4    17 1   
    15     5     6 1   
    16     5    18 1   
    17     5    19 1   
    18     6     7 1   
    19     7    20 1   
    20     7    21 1   
    21     8    22 1   
    22     9    23 1   
@<TRIPOS>SUBSTRUCTURE
     1 9D2         1 TEMP              0 ****  ****    0 ROOT
