@<TRIPOS>MOLECULE
9D2
   23    22     1     0     0
SMALL
No Charge or Current Charge


@<TRIPOS>ATOM
      1 C4          -1.2490     0.0050    -0.9350 c3         1 9D2       0.168600
      2 C5           1.2750    -0.0050    -0.9130 c3         1 9D2       0.168600
      3 C            0.0140     2.6460     0.2430 c3         1 9D2      -0.084100
      4 O           -0.0070    -2.4900     0.1360 oh         1 9D2      -0.664333
      5 C1           0.0020     1.2630     0.9410 c3         1 9D2      -0.065400
      6 C2           0.0050     0.0020     0.0010 c3         1 9D2      -0.040000
      7 C3          -0.0090    -1.2750     0.9050 c3         1 9D2       0.168600
      8 O1          -2.4800     0.0610    -0.1940 oh         1 9D2      -0.664333
      9 O2           2.4930     0.0400    -0.1500 oh         1 9D2      -0.664333
     10 H1          -1.1890     0.8630    -1.6180 h1         1 9D2       0.026033
     11 H2          -1.2350    -0.8940    -1.5650 h1         1 9D2       0.026033
     12 H3           1.2640    -0.9050    -1.5430 h1         1 9D2       0.026033
     13 H4           1.2340     0.8530    -1.5970 h1         1 9D2       0.026033
     14 H5           0.9100     2.7750    -0.3740 hc         1 9D2       0.030700
     15 H6          -0.8710     2.7820    -0.3900 hc         1 9D2       0.030700
     16 H7           0.0100     3.4440     0.9950 hc         1 9D2       0.030700
     17 H8          -0.0160    -3.2340     0.7780 ho         1 9D2       0.442667
     18 H9           0.8670     1.2160     1.6130 hc         1 9D2       0.050700
     19 H10         -0.8760     1.2240     1.5980 hc         1 9D2       0.050700
     20 H11         -0.8950    -1.2480     1.5530 h1         1 9D2       0.026033
     21 H12          0.8670    -1.2560     1.5690 h1         1 9D2       0.026033
     22 H13         -3.2110     0.0270    -0.8500 ho         1 9D2       0.442667
     23 H14          3.2350    -0.0000    -0.7930 ho         1 9D2       0.442667
@<TRIPOS>BOND
     1     1     6 1   
     2     1     8 1   
     3     1    10 1   
     4     1    11 1   
     5     2     6 1   
     6     2     9 1   
     7     2    12 1   
     8     2    13 1   
     9     3     5 1   
    10     3    14 1   
    11     3    15 1   
    12     3    16 1   
    13     4     7 1   
    14     4    17 1   
    15     5     6 1   
    16     5    18 1   
    17     5    19 1   
    18     6     7 1   
    19     7    20 1   
    20     7    21 1   
    21     8    22 1   
    22     9    23 1   
@<TRIPOS>SUBSTRUCTURE
     1 9D2         1 TEMP              0 ****  ****    0 ROOT
