@<TRIPOS>MOLECULE
9D3
   48    50     1     0     0
SMALL
No Charge or Current Charge


@<TRIPOS>ATOM
      1 CAA         -5.0790     3.2100    -0.3370 c3         1 9D3      -0.090100
      2 CAK         -5.1490     1.7250    -0.7520 c3         1 9D3       0.171300
      3 NAZ         -5.9540     0.8520     0.1490 n3         1 9D3      -0.734600
      4 CAL         -7.3890     1.2500     0.2170 c3         1 9D3       0.171300
      5 CAB         -8.2240     0.5170     1.2880 c3         1 9D3      -0.090100
      6 CAN         -5.7680    -0.5940    -0.1660 c3         1 9D3       0.216100
      7 CAU         -4.3200    -1.0710    -0.0650 ca         1 9D3      -0.076300
      8 CAH         -3.6290    -1.5140    -1.2100 ca         1 9D3      -0.104500
      9 CAF         -2.2960    -1.9510    -1.1110 ca         1 9D3      -0.098500
     10 CAG         -3.6600    -1.0710     1.1790 ca         1 9D3      -0.104500
     11 CAE         -2.3280    -1.5070     1.2790 ca         1 9D3      -0.098500
     12 CAT         -1.6390    -1.9510     0.1340 ca         1 9D3      -0.117300
     13 CAM         -0.1950    -2.4130     0.2390 c3         1 9D3       0.154300
     14 NAP          0.7220    -1.2940     0.0480 ns         1 9D3      -0.503900
     15 CAS          2.0960    -1.3920     0.0810 c          1 9D3       0.631700
     16 OAC          2.6190    -2.4760     0.2810 o          1 9D3      -0.573100
     17 CAV          2.8070    -0.0760    -0.1470 cc         1 9D3      -0.097600
     18 CAY          4.2430     0.1710    -0.1760 cc         1 9D3      -0.208600
     19 CAW          5.3480    -0.8060     0.0100 c          1 9D3       0.594600
     20 OAD          5.2620    -2.0010     0.2230 o          1 9D3      -0.506000
     21 NAQ          6.5670    -0.2300    -0.0800 ns         1 9D3      -0.420400
     22 CAI          6.7910     1.0940    -0.3140 cc         1 9D3       0.505800
     23 NAO          5.8310     2.0000    -0.4860 nd         1 9D3      -0.601100
     24 CAX          4.5270     1.5030    -0.4110 cd         1 9D3       0.059400
     25 SAR          3.0940     2.5160    -0.6080 ss         1 9D3       0.285000
     26 CAJ          2.0810     1.0900    -0.3640 cd         1 9D3      -0.245000
     27 H1          -4.3430     3.7360    -0.9550 hc         1 9D3       0.036700
     28 H2          -6.0440     3.7120    -0.4710 hc         1 9D3       0.036700
     29 H3          -4.7740     3.3040     0.7120 hc         1 9D3       0.036700
     30 H4          -5.5370     1.6660    -1.7790 h1         1 9D3       0.031200
     31 H5          -4.1120     1.3670    -0.7860 h1         1 9D3       0.031200
     32 H7          -7.4670     2.3190     0.4510 h1         1 9D3       0.031200
     33 H8          -7.8680     1.1030    -0.7620 h1         1 9D3       0.031200
     34 H9          -9.2100     0.9860     1.3790 hc         1 9D3       0.036700
     35 H10         -8.3810    -0.5350     1.0260 hc         1 9D3       0.036700
     36 H11         -7.7300     0.5690     2.2660 hc         1 9D3       0.036700
     37 H12         -6.3490    -1.2160     0.5260 h1         1 9D3       0.040200
     38 H13         -6.1480    -0.8080    -1.1750 h1         1 9D3       0.040200
     39 H14         -4.1240    -1.5180    -2.1790 ha         1 9D3       0.121500
     40 H15         -1.7740    -2.2860    -2.0050 ha         1 9D3       0.116000
     41 H16         -4.1830    -0.7250     2.0690 ha         1 9D3       0.121500
     42 H17         -1.8300    -1.4960     2.2460 ha         1 9D3       0.116000
     43 H18         -0.0160    -2.8590     1.2260 h1         1 9D3       0.059700
     44 H19          0.0090    -3.1780    -0.5220 h1         1 9D3       0.059700
     45 H20          0.3300    -0.3790    -0.1200 hn         1 9D3       0.321500
     46 H21          7.8450     1.3420    -0.3470 h5         1 9D3       0.050800
     47 H23          1.0090     1.2330    -0.4010 h4         1 9D3       0.159000
     48 H6           7.3580    -0.8440     0.0390 hn         1 9D3       0.332500
@<TRIPOS>BOND
     1     1     2 1   
     2     1    27 1   
     3     1    28 1   
     4     1    29 1   
     5     2     3 1   
     6     2    30 1   
     7     2    31 1   
     8     3     4 1   
     9     3     6 1   
    10     4     5 1   
    11     4    32 1   
    12     4    33 1   
    13     5    34 1   
    14     5    35 1   
    15     5    36 1   
    16     6     7 1   
    17     6    37 1   
    18     6    38 1   
    19     7     8 ar  
    20     7    10 ar  
    21     8     9 ar  
    22     8    39 1   
    23     9    12 ar  
    24     9    40 1   
    25    10    11 ar  
    26    10    41 1   
    27    11    12 ar  
    28    11    42 1   
    29    12    13 1   
    30    13    14 1   
    31    13    43 1   
    32    13    44 1   
    33    14    15 1   
    34    14    45 1   
    35    15    16 2   
    36    15    17 1   
    37    17    18 1   
    38    17    26 2   
    39    18    19 1   
    40    18    24 2   
    41    19    20 2   
    42    19    21 1   
    43    21    22 1   
    44    21    48 1   
    45    22    23 2   
    46    22    46 1   
    47    23    24 1   
    48    24    25 1   
    49    25    26 1   
    50    26    47 1   
@<TRIPOS>SUBSTRUCTURE
     1 9D3         1 TEMP              0 ****  ****    0 ROOT
