@<TRIPOS>MOLECULE
9D3
   48    50     1     0     0
SMALL
bcc


@<TRIPOS>ATOM
      1 CAA         -5.0020     3.0820     0.0960 c3         1 9D3      -0.090100
      2 CAK         -5.1760     1.8790    -0.8170 c3         1 9D3       0.171300
      3 NAZ         -5.8890     0.7860    -0.1700 n3         1 9D3      -0.734600
      4 CAL         -7.3260     1.0090    -0.1330 c3         1 9D3       0.171300
      5 CAB         -8.0220     0.2300     0.9720 c3         1 9D3      -0.090100
      6 CAN         -5.5490    -0.4950    -0.7490 c3         1 9D3       0.216100
      7 CAU         -4.1510    -0.9410    -0.4010 ca         1 9D3      -0.076300
      8 CAH         -3.3920    -1.6700    -1.3090 ca         1 9D3      -0.122500
      9 CAF         -2.1220    -2.1240    -0.9760 ca         1 9D3      -0.116500
     10 CAG         -3.6050    -0.6710     0.8520 ca         1 9D3      -0.122500
     11 CAE         -2.3370    -1.1210     1.1840 ca         1 9D3      -0.116500
     12 CAT         -1.5790    -1.8550     0.2740 ca         1 9D3      -0.117300
     13 CAM         -0.1880    -2.3020     0.6230 c3         1 9D3       0.154300
     14 NAP          0.7350    -1.1890     0.4820 ns         1 9D3      -0.570900
     15 CAS          2.0130    -1.2600     0.8750 c          1 9D3       0.698700
     16 OAC          2.5180    -2.2550     1.3700 o          1 9D3      -0.573100
     17 CAV          2.7820     0.0100     0.7140 cc         1 9D3      -0.097600
     18 CAY          4.0320     0.1420     0.0370 cc         1 9D3      -0.208600
     19 CAW          4.7160    -0.8100    -0.8040 c          1 9D3       0.737100
     20 OAD          4.3480    -1.9300    -1.1000 o          1 9D3      -0.581500
     21 NAQ          5.9070    -0.2870    -1.2990 ns         1 9D3      -0.487400
     22 CAI          6.3550     0.9660    -1.0800 cc         1 9D3       0.505800
     23 NAO          5.7320     1.8470    -0.3710 nd         1 9D3      -0.601100
     24 CAX          4.5720     1.4090     0.1670 cd         1 9D3       0.204300
     25 SAR          3.5590     2.4340     1.1100 ss         1 9D3      -0.004800
     26 CAJ          2.4120     1.1680     1.3190 cd         1 9D3      -0.118100
     27 H1          -4.4490     3.8720    -0.4140 hc         1 9D3       0.036700
     28 H2          -5.9550     3.5040     0.4160 hc         1 9D3       0.036700
     29 H3          -4.4440     2.8000     0.9900 hc         1 9D3       0.036700
     30 H4          -5.6710     2.1790    -1.7540 h1         1 9D3       0.031200
     31 H5          -4.1850     1.5210    -1.1000 h1         1 9D3       0.031200
     32 H7          -7.5000     2.0720     0.0420 h1         1 9D3       0.031200
     33 H8          -7.7930     0.7820    -1.1050 h1         1 9D3       0.031200
     34 H9          -9.0900     0.4490     0.9710 hc         1 9D3       0.036700
     35 H10         -7.9160    -0.8490     0.8580 hc         1 9D3       0.036700
     36 H11         -7.6200     0.5050     1.9470 hc         1 9D3       0.036700
     37 H12         -6.2450    -1.2460    -0.3660 h1         1 9D3       0.040200
     38 H13         -5.6730    -0.5080    -1.8450 h1         1 9D3       0.040200
     39 H14         -3.7920    -1.8850    -2.2940 ha         1 9D3       0.139500
     40 H15         -1.5480    -2.6890    -1.7010 ha         1 9D3       0.134000
     41 H16         -4.1790    -0.0910     1.5640 ha         1 9D3       0.139500
     42 H17         -1.9320    -0.9000     2.1650 ha         1 9D3       0.134000
     43 H18         -0.1510    -2.6690     1.6510 h1         1 9D3       0.059700
     44 H19          0.1170    -3.1300    -0.0230 h1         1 9D3       0.059700
     45 H20          0.4150    -0.3620     0.0030 hn         1 9D3       0.321500
     46 H21          7.2970     1.2170    -1.5490 h5         1 9D3       0.050800
     47 H23          1.5290     1.3420     1.9150 h4         1 9D3       0.177000
     48 H6           6.4600    -0.8890    -1.8970 hn         1 9D3       0.332500
@<TRIPOS>BOND
     1     1     2 1   
     2     1    27 1   
     3     1    28 1   
     4     1    29 1   
     5     2     3 1   
     6     2    30 1   
     7     2    31 1   
     8     3     4 1   
     9     3     6 1   
    10     4     5 1   
    11     4    32 1   
    12     4    33 1   
    13     5    34 1   
    14     5    35 1   
    15     5    36 1   
    16     6     7 1   
    17     6    37 1   
    18     6    38 1   
    19     7     8 ar  
    20     7    10 ar  
    21     8     9 ar  
    22     8    39 1   
    23     9    12 ar  
    24     9    40 1   
    25    10    11 ar  
    26    10    41 1   
    27    11    12 ar  
    28    11    42 1   
    29    12    13 1   
    30    13    14 1   
    31    13    43 1   
    32    13    44 1   
    33    14    15 1   
    34    14    45 1   
    35    15    16 2   
    36    15    17 1   
    37    17    18 1   
    38    17    26 2   
    39    18    19 1   
    40    18    24 2   
    41    19    20 2   
    42    19    21 1   
    43    21    22 1   
    44    21    48 1   
    45    22    23 2   
    46    22    46 1   
    47    23    24 1   
    48    24    25 1   
    49    25    26 1   
    50    26    47 1   
@<TRIPOS>SUBSTRUCTURE
     1 9D3         1 TEMP              0 ****  ****    0 ROOT
