@<TRIPOS>MOLECULE
9D4
   38    41     1     0     0
SMALL
No Charge or Current Charge


@<TRIPOS>ATOM
      1 N1           0.4040    -1.2090     0.2420 nc         1 9D4      -0.640100
      2 C4           0.9730    -0.0060     0.1520 cd         1 9D4       0.655100
      3 C5          -0.9680    -0.9860     0.1690 ca         1 9D4       0.156400
      4 C6          -1.9240    -2.0120     0.2270 ca         1 9D4      -0.084000
      5 C7          -3.2950    -1.6970     0.1440 ca         1 9D4      -0.082000
      6 C8          -3.7380    -0.3520     0.0030 cp         1 9D4      -0.059000
      7 C10         -1.3940     0.3230     0.0320 ca         1 9D4      -0.196000
      8 C13         -7.0970     1.4610     0.3250 ca         1 9D4       0.334400
      9 C15         -6.1300    -0.9010    -0.6830 ca         1 9D4      -0.159000
     10 C17          6.6700     0.2900     1.5320 ca         1 9D4      -0.085000
     11 C            6.7030     0.1180    -0.8920 ca         1 9D4       0.169000
     12 C18          7.3480     0.4460     0.3110 ca         1 9D4      -0.143000
     13 C16          5.3500    -0.1960     1.5450 ca         1 9D4      -0.116000
     14 C2           4.6990    -0.5290     0.3390 ca         1 9D4      -0.088300
     15 C1           5.3850    -0.3670    -0.8820 ca         1 9D4      -0.135000
     16 C3           3.2690    -1.0510     0.3530 c3         1 9D4       0.268100
     17 N            2.3320     0.0670     0.1970 nu         1 9D4      -0.879400
     18 S           -0.0480     1.4440    -0.0230 ss         1 9D4      -0.036200
     19 C9          -2.7510     0.6670    -0.0520 ca         1 9D4      -0.041000
     20 C11         -5.1970    -0.0210    -0.0840 cp         1 9D4       0.013000
     21 C14         -7.4890    -0.5520    -0.7450 ca         1 9D4       0.334400
     22 N2          -7.9750     0.6090    -0.2510 nb         1 9D4      -0.663000
     23 C12         -5.7230     1.1890     0.4260 ca         1 9D4      -0.159000
     24 H1          -1.6060    -3.0450     0.3370 ha         1 9D4       0.132000
     25 H2          -4.0200    -2.5050     0.2040 ha         1 9D4       0.119000
     26 H3          -7.5090     2.3890     0.7200 h4         1 9D4       0.018100
     27 H4          -5.8100    -1.8440    -1.1130 ha         1 9D4       0.123500
     28 H5           7.1650     0.5450     2.4670 ha         1 9D4       0.120000
     29 H6           8.3680     0.8210     0.2940 ha         1 9D4       0.134000
     30 H7           4.8300    -0.3120     2.4940 ha         1 9D4       0.119000
     31 H8           4.8990    -0.6140    -1.8230 ha         1 9D4       0.141000
     32 H9           3.1370    -1.7770    -0.4610 h1         1 9D4       0.067200
     33 H10          3.0800    -1.5780     1.2990 h1         1 9D4       0.067200
     34 H11          2.7140     1.0070     0.1360 hn         1 9D4       0.503000
     35 H12         -3.0350     1.7090    -0.1720 ha         1 9D4       0.125000
     36 H13         -8.2130    -1.2220    -1.2090 h4         1 9D4       0.018100
     37 H14         -5.0790     1.9150     0.9140 ha         1 9D4       0.123500
     38 F            7.3540     0.2710    -2.0650 f          1 9D4      -0.177000
@<TRIPOS>BOND
     1     1     2 2   
     2     1     3 1   
     3     2    17 1   
     4     2    18 1   
     5     3     4 ar  
     6     3     7 ar  
     7     4     5 ar  
     8     4    24 1   
     9     5     6 ar  
    10     5    25 1   
    11     6    19 ar  
    12     6    20 1   
    13     7    18 1   
    14     7    19 ar  
    15     8    22 ar  
    16     8    23 ar  
    17     8    26 1   
    18     9    20 ar  
    19     9    21 ar  
    20     9    27 1   
    21    10    12 ar  
    22    10    13 ar  
    23    10    28 1   
    24    11    12 ar  
    25    11    15 ar  
    26    11    38 1   
    27    12    29 1   
    28    13    14 ar  
    29    13    30 1   
    30    14    15 ar  
    31    14    16 1   
    32    15    31 1   
    33    16    17 1   
    34    16    32 1   
    35    16    33 1   
    36    17    34 1   
    37    19    35 1   
    38    20    23 ar  
    39    21    22 ar  
    40    21    36 1   
    41    23    37 1   
@<TRIPOS>SUBSTRUCTURE
     1 9D4         1 TEMP              0 ****  ****    0 ROOT
