@<TRIPOS>MOLECULE
9D4
   38    41     1     0     0
SMALL
abcg2


@<TRIPOS>ATOM
      1 N1           0.4080    -1.0400     0.5520 nc         1 9D4      -0.640100
      2 C4           0.9900     0.1180     0.5730 cd         1 9D4       0.655100
      3 C5          -0.9400    -0.9040     0.3540 ca         1 9D4       0.156400
      4 C6          -1.8610    -1.9460     0.2740 ca         1 9D4      -0.084000
      5 C7          -3.1990    -1.6580     0.0780 ca         1 9D4      -0.082000
      6 C8          -3.6620    -0.3390    -0.0390 cp         1 9D4      -0.059000
      7 C10         -1.4110     0.4150     0.2340 ca         1 9D4      -0.196000
      8 C13         -7.0510     1.2950     0.0780 ca         1 9D4       0.334400
      9 C15         -5.9180    -0.9290    -0.9550 ca         1 9D4      -0.159000
     10 C17          6.9600    -0.1900     1.0610 ca         1 9D4      -0.085000
     11 C            6.1550     0.2250    -1.1340 ca         1 9D4       0.169000
     12 C18          7.2190     0.1730    -0.2510 ca         1 9D4      -0.143000
     13 C16          5.6660    -0.4880     1.4700 ca         1 9D4      -0.116000
     14 C2           4.6130    -0.4350     0.5650 ca         1 9D4      -0.088300
     15 C1           4.8620    -0.0700    -0.7570 ca         1 9D4      -0.135000
     16 C3           3.2140    -0.7830     0.9970 c3         1 9D4       0.268100
     17 N            2.3060     0.3110     0.7170 nu         1 9D4      -0.879400
     18 S           -0.0680     1.5150     0.3610 ss         1 9D4      -0.036200
     19 C9          -2.7470     0.7110     0.0430 ca         1 9D4      -0.041000
     20 C11         -5.0950    -0.0620    -0.2360 cp         1 9D4       0.013000
     21 C14         -7.2610    -0.6230    -1.1070 ca         1 9D4       0.334400
     22 N2          -7.8320     0.4670    -0.6060 nb         1 9D4      -0.663000
     23 C12         -5.6990     1.0810     0.2890 ca         1 9D4      -0.159000
     24 H1          -1.5280    -2.9710     0.3740 ha         1 9D4       0.132000
     25 H2          -3.9060    -2.4760     0.0400 ha         1 9D4       0.119000
     26 H3          -7.5240     2.1790     0.4910 h4         1 9D4       0.018100
     27 H4          -5.5270    -1.8270    -1.4140 ha         1 9D4       0.123500
     28 H5           7.7740    -0.2350     1.7720 ha         1 9D4       0.120000
     29 H6           8.2210     0.4100    -0.5830 ha         1 9D4       0.134000
     30 H7           5.4750    -0.7620     2.5000 ha         1 9D4       0.119000
     31 H8           4.0600    -0.0210    -1.4840 ha         1 9D4       0.141000
     32 H9           2.8630    -1.6600     0.4530 h1         1 9D4       0.067200
     33 H10          3.2040    -1.0400     2.0600 h1         1 9D4       0.067200
     34 H11          2.6370     1.2440     0.9050 hn         1 9D4       0.503000
     35 H12         -3.0710     1.7380    -0.0650 ha         1 9D4       0.125000
     36 H13         -7.9030    -1.2930    -1.6690 h4         1 9D4       0.018100
     37 H14         -5.1360     1.7940     0.8780 ha         1 9D4       0.123500
     38 F            6.3910     0.5730    -2.4100 f          1 9D4      -0.177000
@<TRIPOS>BOND
     1     1     2 2   
     2     1     3 1   
     3     2    17 1   
     4     2    18 1   
     5     3     4 ar  
     6     3     7 ar  
     7     4     5 ar  
     8     4    24 1   
     9     5     6 ar  
    10     5    25 1   
    11     6    19 ar  
    12     6    20 1   
    13     7    18 1   
    14     7    19 ar  
    15     8    22 ar  
    16     8    23 ar  
    17     8    26 1   
    18     9    20 ar  
    19     9    21 ar  
    20     9    27 1   
    21    10    12 ar  
    22    10    13 ar  
    23    10    28 1   
    24    11    12 ar  
    25    11    15 ar  
    26    11    38 1   
    27    12    29 1   
    28    13    14 ar  
    29    13    30 1   
    30    14    15 ar  
    31    14    16 1   
    32    15    31 1   
    33    16    17 1   
    34    16    32 1   
    35    16    33 1   
    36    17    34 1   
    37    19    35 1   
    38    20    23 ar  
    39    21    22 ar  
    40    21    36 1   
    41    23    37 1   
@<TRIPOS>SUBSTRUCTURE
     1 9D4         1 TEMP              0 ****  ****    0 ROOT
