@<TRIPOS>MOLECULE
9D5
   41    43     1     0     0
SMALL
abcg2


@<TRIPOS>ATOM
      1 OAE          5.0830    -1.1570     1.3610 oh         1 9D5      -0.652000
      2 CAD          5.4970    -1.2220     0.0170 c3         1 9D5       0.145600
      3 CAC          4.2990    -1.0390    -0.8940 c3         1 9D5       0.229800
      4 NAB          3.6710     0.2630    -0.7990 nh         1 9D5      -0.825400
      5 CAA          4.1990     1.2920    -1.6610 c3         1 9D5       0.212100
      6 CAF          2.4430     0.4330    -0.2110 ca         1 9D5       0.353000
      7 CAK          1.6310     1.5380    -0.5180 ca         1 9D5      -0.182500
      8 CAJ          0.3840     1.7020     0.0690 ca         1 9D5      -0.052500
      9 CAG          1.9340    -0.4800     0.7310 ca         1 9D5      -0.182500
     10 CAH          0.6870    -0.3030     1.2980 ca         1 9D5      -0.052500
     11 CAI         -0.1250     0.7840     0.9770 ca         1 9D5      -0.209300
     12 CAL         -1.4800     0.9620     1.6550 c6         1 9D5       0.456200
     13 NAR         -2.2090    -0.2770     1.7960 nu         1 9D5      -0.942200
     14 CAQ         -2.6990    -0.8150     0.6330 ca         1 9D5       0.334000
     15 CAS         -2.8900    -2.1900     0.4660 ca         1 9D5      -0.191000
     16 CAT         -3.4080    -2.6750    -0.7200 ca         1 9D5      -0.049000
     17 CAU         -3.7490    -1.8150    -1.7620 ca         1 9D5      -0.169000
     18 CAV         -3.5810    -0.4530    -1.5930 ca         1 9D5      -0.016000
     19 CAP         -3.0580     0.0580    -0.4070 ca         1 9D5      -0.210600
     20 CAN         -2.9890     1.5190    -0.1860 c          1 9D5       0.590600
     21 OAO         -3.5280     2.3310    -0.9270 o          1 9D5      -0.566000
     22 NAM         -2.3390     1.8810     0.9420 ns         1 9D5      -0.508900
     23 H1           5.8560    -1.2800     1.9190 ho         1 9D5       0.442000
     24 H2           6.2470    -0.4530    -0.2120 h1         1 9D5       0.020700
     25 H3           5.9540    -2.1900    -0.2240 h1         1 9D5       0.020700
     26 H4           4.6390    -1.1920    -1.9230 h1         1 9D5       0.052200
     27 H5           3.5650    -1.8240    -0.7070 h1         1 9D5       0.052200
     28 H6           3.6600     1.3770    -2.6120 h1         1 9D5       0.034367
     29 H7           4.1790     2.2670    -1.1730 h1         1 9D5       0.034367
     30 H8           5.2400     1.0690    -1.8900 h1         1 9D5       0.034367
     31 H9           1.9540     2.2780    -1.2370 ha         1 9D5       0.120000
     32 H10         -0.1960     2.5700    -0.2190 ha         1 9D5       0.105500
     33 H11          2.5290    -1.3220     1.0540 ha         1 9D5       0.120000
     34 H12          0.3540    -1.0430     2.0160 ha         1 9D5       0.105500
     35 H13         -2.6210    -2.8700     1.2650 ha         1 9D5       0.111000
     36 H14         -3.5400    -3.7430    -0.8380 ha         1 9D5       0.109000
     37 H15         -4.1480    -2.2070    -2.6870 ha         1 9D5       0.117000
     38 H16         -3.8600     0.2320    -2.3830 ha         1 9D5       0.132000
     39 H17         -2.2720     2.8650     1.1550 hn         1 9D5       0.323500
     40 H18         -1.3330     1.3700     2.6560 h2         1 9D5       0.072700
     41 H19         -1.8480    -0.9240     2.4780 hn         1 9D5       0.476000
@<TRIPOS>BOND
     1     1     2 1   
     2     1    23 1   
     3     2     3 1   
     4     2    24 1   
     5     2    25 1   
     6     3     4 1   
     7     3    26 1   
     8     3    27 1   
     9     4     5 1   
    10     4     6 1   
    11     5    28 1   
    12     5    29 1   
    13     5    30 1   
    14     6     7 ar  
    15     6     9 ar  
    16     7     8 ar  
    17     7    31 1   
    18     8    11 ar  
    19     8    32 1   
    20     9    10 ar  
    21     9    33 1   
    22    10    11 ar  
    23    10    34 1   
    24    11    12 1   
    25    12    13 1   
    26    12    22 1   
    27    12    40 1   
    28    13    14 1   
    29    13    41 1   
    30    14    15 ar  
    31    14    19 ar  
    32    15    16 ar  
    33    15    35 1   
    34    16    17 ar  
    35    16    36 1   
    36    17    18 ar  
    37    17    37 1   
    38    18    19 ar  
    39    18    38 1   
    40    19    20 1   
    41    20    21 2   
    42    20    22 1   
    43    22    39 1   
@<TRIPOS>SUBSTRUCTURE
     1 9D5         1 TEMP              0 ****  ****    0 ROOT
