@<TRIPOS>MOLECULE
9D5
   41    43     1     0     0
SMALL
No Charge or Current Charge


@<TRIPOS>ATOM
      1 OAE          5.9170     0.4640     1.5900 oh         1 9D5      -0.652000
      2 CAD          6.2070    -0.3120     0.4120 c3         1 9D5       0.145600
      3 CAC          4.9350    -1.0000    -0.1760 c3         1 9D5       0.229800
      4 NAB          3.8850    -0.0910    -0.7280 nh         1 9D5      -0.825400
      5 CAA          4.1780     0.5600    -2.0260 c3         1 9D5       0.212100
      6 CAF          2.5930    -0.0130    -0.1440 ca         1 9D5       0.353000
      7 CAK          1.4460     0.1370    -0.9490 ca         1 9D5      -0.182500
      8 CAJ          0.1660     0.2130    -0.3750 ca         1 9D5      -0.052500
      9 CAG          2.4260    -0.0820     1.2520 ca         1 9D5      -0.182500
     10 CAH          1.1490    -0.0060     1.8330 ca         1 9D5      -0.052500
     11 CAI          0.0070     0.1420     1.0240 ca         1 9D5      -0.209300
     12 CAL         -1.3740     0.2260     1.6760 c6         1 9D5       0.456200
     13 NAR         -2.2130    -0.8800     1.2500 nu         1 9D5      -0.942200
     14 CAQ         -3.0740    -0.8370     0.1680 ca         1 9D5       0.334000
     15 CAS         -3.5240    -2.0250    -0.4260 ca         1 9D5      -0.191000
     16 CAT         -4.4110    -1.9770    -1.5140 ca         1 9D5      -0.049000
     17 CAU         -4.8480    -0.7330    -2.0020 ca         1 9D5      -0.169000
     18 CAV         -4.3970     0.4570    -1.4040 ca         1 9D5      -0.016000
     19 CAP         -3.5010     0.3990    -0.3160 ca         1 9D5      -0.210600
     20 CAN         -2.9900     1.6290     0.3480 c          1 9D5       0.590600
     21 OAO         -3.3970     2.7470     0.0710 o          1 9D5      -0.566000
     22 NAM         -2.0360     1.4620     1.3130 ns         1 9D5      -0.508900
     23 H1           6.7490     0.9210     1.8440 ho         1 9D5       0.442000
     24 H2           6.6600     0.3260    -0.3590 h1         1 9D5       0.020700
     25 H3           6.9390    -1.0940     0.6560 h1         1 9D5       0.020700
     26 H4           5.2660    -1.6760    -0.9760 h1         1 9D5       0.052200
     27 H5           4.5070    -1.6510     0.5980 h1         1 9D5       0.052200
     28 H6           3.8370    -0.0700    -2.8590 h1         1 9D5       0.034367
     29 H7           3.6760     1.5350    -2.0900 h1         1 9D5       0.034367
     30 H8           5.2560     0.7340    -2.1460 h1         1 9D5       0.034367
     31 H9           1.5370     0.1830    -2.0290 ha         1 9D5       0.120000
     32 H10         -0.7010     0.3240    -1.0220 ha         1 9D5       0.105500
     33 H11          3.2910    -0.1830     1.9000 ha         1 9D5       0.120000
     34 H12          1.0510    -0.0590     2.9160 ha         1 9D5       0.105500
     35 H13         -3.1900    -2.9860    -0.0450 ha         1 9D5       0.111000
     36 H14         -4.7610    -2.8980    -1.9760 ha         1 9D5       0.109000
     37 H15         -5.5360    -0.6910    -2.8430 ha         1 9D5       0.117000
     38 H16         -4.7380     1.4160    -1.7880 ha         1 9D5       0.132000
     39 H17         -1.7050     2.3070     1.7530 hn         1 9D5       0.323500
     40 H18         -1.2460     0.2110     2.7720 h2         1 9D5       0.072700
     41 H19         -1.9020    -1.8110     1.5210 hn         1 9D5       0.476000
@<TRIPOS>BOND
     1     1     2 1   
     2     1    23 1   
     3     2     3 1   
     4     2    24 1   
     5     2    25 1   
     6     3     4 1   
     7     3    26 1   
     8     3    27 1   
     9     4     5 1   
    10     4     6 1   
    11     5    28 1   
    12     5    29 1   
    13     5    30 1   
    14     6     7 ar  
    15     6     9 ar  
    16     7     8 ar  
    17     7    31 1   
    18     8    11 ar  
    19     8    32 1   
    20     9    10 ar  
    21     9    33 1   
    22    10    11 ar  
    23    10    34 1   
    24    11    12 1   
    25    12    13 1   
    26    12    22 1   
    27    12    40 1   
    28    13    14 1   
    29    13    41 1   
    30    14    15 ar  
    31    14    19 ar  
    32    15    16 ar  
    33    15    35 1   
    34    16    17 ar  
    35    16    36 1   
    36    17    18 ar  
    37    17    37 1   
    38    18    19 ar  
    39    18    38 1   
    40    19    20 1   
    41    20    21 2   
    42    20    22 1   
    43    22    39 1   
@<TRIPOS>SUBSTRUCTURE
     1 9D5         1 TEMP              0 ****  ****    0 ROOT
