@<TRIPOS>MOLECULE
9D6
   58    61     1     0     0
SMALL
No Charge or Current Charge


@<TRIPOS>ATOM
      1 CAN         -6.8020     0.9790     0.9070 c6         1 9D6      -0.085900
      2 CAK         -6.9500     2.4140     0.3410 c6         1 9D6      -0.072900
      3 CAJ         -7.4020     2.3830    -1.1400 c6         1 9D6      -0.075400
      4 CAL         -6.4390     1.5330    -2.0050 c6         1 9D6      -0.072900
      5 CAO         -6.2770     0.1020    -1.4330 c6         1 9D6      -0.085900
      6 CBC         -5.8040     0.1430     0.0530 c6         1 9D6       0.189500
      7 NBD         -5.5260    -1.2150     0.6390 n3         1 9D6      -0.747600
      8 CAM         -6.7100    -2.1220     0.7020 c3         1 9D6       0.181800
      9 CAA         -6.5140    -3.3870     1.5640 c3         1 9D6      -0.092100
     10 CAQ         -4.3190    -1.8750     0.0570 c3         1 9D6       0.225100
     11 CAX         -3.0580    -1.0140     0.0860 ca         1 9D6      -0.083300
     12 CAG         -2.4640    -0.6700     1.3150 ca         1 9D6      -0.100500
     13 CAE         -1.3090     0.1300     1.3480 ca         1 9D6      -0.104000
     14 CAF         -2.4820    -0.5480    -1.1120 ca         1 9D6      -0.100500
     15 CAD         -1.3270     0.2530    -1.0790 ca         1 9D6      -0.104000
     16 CAW         -0.7360     0.5980     0.1510 ca         1 9D6      -0.111300
     17 CAP          0.5170     1.4590     0.1850 c3         1 9D6       0.146300
     18 NAS          1.7180     0.6310     0.1290 ns         1 9D6      -0.501900
     19 CAV          3.0070     1.1190     0.1410 c          1 9D6       0.635700
     20 OAB          3.1970     2.3230     0.2020 o          1 9D6      -0.568100
     21 CAY          4.0670     0.0410     0.0740 cc         1 9D6      -0.100600
     22 CBB          5.5140     0.2120     0.0670 cc         1 9D6      -0.207600
     23 CAZ          6.2930     1.4770     0.1260 c          1 9D6       0.594600
     24 OAC          5.8660     2.6150     0.1900 o          1 9D6      -0.505000
     25 NAT          7.6270     1.2640     0.1010 ns         1 9D6      -0.420400
     26 CAH          8.2230     0.0410     0.0300 cc         1 9D6       0.505800
     27 NAR          7.5640    -1.1140    -0.0230 nd         1 9D6      -0.601100
     28 CBA          6.1700    -1.0030    -0.0030 cd         1 9D6       0.059400
     29 SAU          5.0880    -2.3980    -0.0650 ss         1 9D6       0.289000
     30 CAI          3.7070    -1.3000     0.0070 cd         1 9D6      -0.248000
     31 H1          -6.4530     1.0270     1.9470 hc         1 9D6       0.040950
     32 H2          -7.7940     0.5100     0.9270 hc         1 9D6       0.040950
     33 H3          -7.6760     2.9790     0.9410 hc         1 9D6       0.039700
     34 H4          -5.9930     2.9470     0.4260 hc         1 9D6       0.039700
     35 H5          -8.4190     1.9710    -1.2070 hc         1 9D6       0.037700
     36 H6          -7.4540     3.4060    -1.5350 hc         1 9D6       0.037700
     37 H7          -6.8120     1.4820    -3.0370 hc         1 9D6       0.039700
     38 H8          -5.4560     2.0230    -2.0540 hc         1 9D6       0.039700
     39 H9          -7.2350    -0.4300    -1.5130 hc         1 9D6       0.040950
     40 H10         -5.5590    -0.4490    -2.0520 hc         1 9D6       0.040950
     41 H11         -4.8690     0.7230     0.0650 h1         1 9D6       0.062700
     42 H13         -7.5690    -1.5930     1.1300 h1         1 9D6       0.030200
     43 H14         -7.0010    -2.4370    -0.3090 h1         1 9D6       0.030200
     44 H15         -7.4700    -3.9100     1.6820 hc         1 9D6       0.036033
     45 H16         -5.8100    -4.0860     1.0980 hc         1 9D6       0.036033
     46 H17         -6.1440    -3.1220     2.5610 hc         1 9D6       0.036033
     47 H18         -4.0840    -2.7900     0.6150 h1         1 9D6       0.037200
     48 H19         -4.5200    -2.1870    -0.9770 h1         1 9D6       0.037200
     49 H20         -2.9050    -1.0210     2.2460 ha         1 9D6       0.119500
     50 H21         -0.8610     0.3870     2.3060 ha         1 9D6       0.113000
     51 H22         -2.9290    -0.8030    -2.0700 ha         1 9D6       0.119500
     52 H23         -0.8910     0.6050    -2.0120 ha         1 9D6       0.113000
     53 H24          0.5170     2.1520    -0.6670 h1         1 9D6       0.067200
     54 H25          0.5340     2.0560     1.1070 h1         1 9D6       0.067200
     55 H26          1.6060    -0.3710     0.0780 hn         1 9D6       0.316500
     56 H27          9.3050     0.1000     0.0220 h5         1 9D6       0.050800
     57 H29          2.7200    -1.7440    -0.0060 h4         1 9D6       0.159000
     58 H30          8.2080     2.0880     0.1380 hn         1 9D6       0.333500
@<TRIPOS>BOND
     1     1     2 1   
     2     1     6 1   
     3     1    31 1   
     4     1    32 1   
     5     2     3 1   
     6     2    33 1   
     7     2    34 1   
     8     3     4 1   
     9     3    35 1   
    10     3    36 1   
    11     4     5 1   
    12     4    37 1   
    13     4    38 1   
    14     5     6 1   
    15     5    39 1   
    16     5    40 1   
    17     6     7 1   
    18     6    41 1   
    19     7     8 1   
    20     7    10 1   
    21     8     9 1   
    22     8    42 1   
    23     8    43 1   
    24     9    44 1   
    25     9    45 1   
    26     9    46 1   
    27    10    11 1   
    28    10    47 1   
    29    10    48 1   
    30    11    12 ar  
    31    11    14 ar  
    32    12    13 ar  
    33    12    49 1   
    34    13    16 ar  
    35    13    50 1   
    36    14    15 ar  
    37    14    51 1   
    38    15    16 ar  
    39    15    52 1   
    40    16    17 1   
    41    17    18 1   
    42    17    53 1   
    43    17    54 1   
    44    18    19 1   
    45    18    55 1   
    46    19    20 2   
    47    19    21 1   
    48    21    22 1   
    49    21    30 2   
    50    22    23 1   
    51    22    28 2   
    52    23    24 2   
    53    23    25 1   
    54    25    26 1   
    55    25    58 1   
    56    26    27 2   
    57    26    56 1   
    58    27    28 1   
    59    28    29 1   
    60    29    30 1   
    61    30    57 1   
@<TRIPOS>SUBSTRUCTURE
     1 9D6         1 TEMP              0 ****  ****    0 ROOT
