@<TRIPOS>MOLECULE
9D6
   58    61     1     0     0
SMALL
bcc


@<TRIPOS>ATOM
      1 CAN         -6.5320     1.0960     0.6450 c6         1 9D6      -0.085900
      2 CAK         -6.7640     2.4720     0.0260 c6         1 9D6      -0.072900
      3 CAJ         -7.4360     2.3670    -1.3390 c6         1 9D6      -0.075400
      4 CAL         -6.6390     1.4630    -2.2740 c6         1 9D6      -0.072900
      5 CAO         -6.4240     0.0840    -1.6560 c6         1 9D6      -0.085900
      6 CBC         -5.7350     0.1910    -0.2910 c6         1 9D6       0.189500
      7 NBD         -5.4170    -1.0870     0.3410 n3         1 9D6      -0.747600
      8 CAM         -6.5250    -2.0210     0.4560 c3         1 9D6       0.181800
      9 CAA         -6.3880    -2.9240     1.6730 c3         1 9D6      -0.092100
     10 CAQ         -4.2230    -1.6910    -0.2050 c3         1 9D6       0.225100
     11 CAX         -2.9630    -0.9840     0.2310 ca         1 9D6      -0.083300
     12 CAG         -2.8380    -0.4770     1.5210 ca         1 9D6      -0.118500
     13 CAE         -1.6590     0.1240     1.9340 ca         1 9D6      -0.122000
     14 CAF         -1.8800    -0.8600    -0.6330 ca         1 9D6      -0.118500
     15 CAD         -0.7000    -0.2550    -0.2220 ca         1 9D6      -0.122000
     16 CAW         -0.5740     0.2450     1.0700 ca         1 9D6      -0.111300
     17 CAP          0.6830     0.9420     1.5300 c3         1 9D6       0.146300
     18 NAS          1.8920     0.2950     1.0790 ns         1 9D6      -0.568900
     19 CAV          2.7130     0.7980     0.1430 c          1 9D6       0.702700
     20 OAB          2.5630     1.8760    -0.4060 o          1 9D6      -0.568100
     21 CAY          3.8390    -0.1080    -0.2310 cc         1 9D6      -0.100600
     22 CBB          5.2170     0.2630    -0.2820 cc         1 9D6      -0.207600
     23 CAZ          5.8590     1.4550     0.2170 c          1 9D6       0.737100
     24 OAC          5.3350     2.3890     0.7920 o          1 9D6      -0.580500
     25 NAT          7.2310     1.4290    -0.0160 ns         1 9D6      -0.487400
     26 CAH          7.9040     0.4030    -0.5750 cc         1 9D6       0.505800
     27 NAR          7.3540    -0.6940    -0.9780 nd         1 9D6      -0.601100
     28 CBA          6.0130    -0.7370    -0.8110 cd         1 9D6       0.204300
     29 SAU          5.0860    -2.1220    -1.2420 ss         1 9D6      -0.000800
     30 CAI          3.6370    -1.3640    -0.7070 cd         1 9D6      -0.121100
     31 H1          -5.9950     1.1880     1.5920 hc         1 9D6       0.040950
     32 H2          -7.5020     0.6420     0.8750 hc         1 9D6       0.040950
     33 H3          -7.3680     3.0860     0.6990 hc         1 9D6       0.039700
     34 H4          -5.8030     2.9880    -0.0830 hc         1 9D6       0.039700
     35 H5          -8.4440     1.9580    -1.2140 hc         1 9D6       0.037700
     36 H6          -7.5560     3.3590    -1.7810 hc         1 9D6       0.037700
     37 H7          -7.1480     1.3670    -3.2360 hc         1 9D6       0.039700
     38 H8          -5.6670     1.9240    -2.4840 hc         1 9D6       0.039700
     39 H9          -7.3970    -0.4070    -1.5430 hc         1 9D6       0.040950
     40 H10         -5.8360    -0.5440    -2.3320 hc         1 9D6       0.040950
     41 H11         -4.7710     0.6900    -0.4530 h1         1 9D6       0.062700
     42 H13         -7.4500    -1.4530     0.5570 h1         1 9D6       0.030200
     43 H14         -6.6460    -2.6360    -0.4500 h1         1 9D6       0.030200
     44 H15         -7.2390    -3.6030     1.7430 hc         1 9D6       0.036033
     45 H16         -5.4860    -3.5370     1.6330 hc         1 9D6       0.036033
     46 H17         -6.3460    -2.3300     2.5860 hc         1 9D6       0.036033
     47 H18         -4.1650    -2.7270     0.1410 h1         1 9D6       0.037200
     48 H19         -4.2390    -1.7540    -1.3060 h1         1 9D6       0.037200
     49 H20         -3.6800    -0.5490     2.1990 ha         1 9D6       0.137500
     50 H21         -1.5800     0.5050     2.9460 ha         1 9D6       0.131000
     51 H22         -1.9590    -1.2360    -1.6470 ha         1 9D6       0.137500
     52 H23          0.1220    -0.1730    -0.9230 ha         1 9D6       0.131000
     53 H24          0.6970     1.9720     1.1710 h1         1 9D6       0.067200
     54 H25          0.6960     0.9930     2.6200 h1         1 9D6       0.067200
     55 H26          2.1240    -0.5940     1.4930 hn         1 9D6       0.316500
     56 H27          8.9720     0.5390    -0.6720 h5         1 9D6       0.050800
     57 H29          2.6960    -1.8830    -0.8100 h4         1 9D6       0.177000
     58 H30          7.7640     2.2320     0.2930 hn         1 9D6       0.333500
@<TRIPOS>BOND
     1     1     2 1   
     2     1     6 1   
     3     1    31 1   
     4     1    32 1   
     5     2     3 1   
     6     2    33 1   
     7     2    34 1   
     8     3     4 1   
     9     3    35 1   
    10     3    36 1   
    11     4     5 1   
    12     4    37 1   
    13     4    38 1   
    14     5     6 1   
    15     5    39 1   
    16     5    40 1   
    17     6     7 1   
    18     6    41 1   
    19     7     8 1   
    20     7    10 1   
    21     8     9 1   
    22     8    42 1   
    23     8    43 1   
    24     9    44 1   
    25     9    45 1   
    26     9    46 1   
    27    10    11 1   
    28    10    47 1   
    29    10    48 1   
    30    11    12 ar  
    31    11    14 ar  
    32    12    13 ar  
    33    12    49 1   
    34    13    16 ar  
    35    13    50 1   
    36    14    15 ar  
    37    14    51 1   
    38    15    16 ar  
    39    15    52 1   
    40    16    17 1   
    41    17    18 1   
    42    17    53 1   
    43    17    54 1   
    44    18    19 1   
    45    18    55 1   
    46    19    20 2   
    47    19    21 1   
    48    21    22 1   
    49    21    30 2   
    50    22    23 1   
    51    22    28 2   
    52    23    24 2   
    53    23    25 1   
    54    25    26 1   
    55    25    58 1   
    56    26    27 2   
    57    26    56 1   
    58    27    28 1   
    59    28    29 1   
    60    29    30 1   
    61    30    57 1   
@<TRIPOS>SUBSTRUCTURE
     1 9D6         1 TEMP              0 ****  ****    0 ROOT
