@<TRIPOS>MOLECULE
9D8
   53    55     1     0     0
SMALL
bcc


@<TRIPOS>ATOM
      1 C1           1.7620     1.3340    -0.4610 c3         1 9D8       0.104000
      2 C2           2.1530     1.7430     0.9540 c3         1 9D8      -0.096400
      3 O2          -3.4490    -2.8980     1.6030 o          1 9D8      -0.594300
      4 C4           3.9460     0.7100    -1.4380 c3         1 9D8       0.139300
      5 C5           4.9790     0.6410    -0.3390 ca         1 9D8      -0.102300
      6 C7           6.0230    -0.4830     1.5260 ca         1 9D8      -0.128500
      7 C8           6.9600     0.5370     1.6340 ca         1 9D8      -0.125000
      8 C9           6.9070     1.6090     0.7540 ca         1 9D8      -0.128500
      9 C10          5.9210     1.6590    -0.2230 ca         1 9D8      -0.118000
     10 C11          0.8200    -1.3620    -0.9150 ca         1 9D8      -0.082600
     11 C12          0.4450    -1.4370     0.4210 ca         1 9D8      -0.115000
     12 C13         -0.8210    -1.8840     0.7700 ca         1 9D8      -0.040000
     13 C14         -1.7000    -2.2600    -0.2340 ca         1 9D8      -0.295500
     14 C15         -3.7560    -0.0700     0.3880 ca         1 9D8       0.103600
     15 C16         -3.0630     0.8280    -0.4170 ca         1 9D8      -0.149000
     16 C17         -2.6020     2.0100     0.1380 ca         1 9D8       0.035400
     17 C18         -2.8000     2.3050     1.4780 ca         1 9D8      -0.122000
     18 C19         -3.4860     1.3940     2.2670 ca         1 9D8      -0.109000
     19 C20         -3.9730     0.2110     1.7310 ca         1 9D8      -0.103000
     20 C21         -1.3330    -2.2150    -1.5730 ca         1 9D8      -0.040000
     21 C22         -0.0650    -1.7770    -1.9080 ca         1 9D8      -0.115000
     22 S           -3.3700    -2.6760     0.1730 sy         1 9D8       1.283200
     23 O1          -3.8640    -3.6750    -0.7570 o          1 9D8      -0.594300
     24 N1          -4.2310    -1.2850    -0.1680 nu         1 9D8      -0.668500
     25 CL          -1.7350     3.1240    -0.8650 cl         1 9D8      -0.106400
     26 C            2.2020    -0.9530    -1.3270 c          1 9D8       0.672700
     27 O            2.8980    -1.7710    -1.9130 o          1 9D8      -0.585100
     28 N            2.6100     0.2990    -1.0380 n          1 9D8      -0.468800
     29 C3           1.1800     2.7630     1.5240 c3         1 9D8      -0.090100
     30 C6           5.0420    -0.4320     0.5450 ca         1 9D8      -0.118000
     31 H1           0.7240     1.0050    -0.4780 h1         1 9D8       0.051200
     32 H2           1.8080     2.2070    -1.1190 h1         1 9D8       0.051200
     33 H3           2.1860     0.8590     1.5970 hc         1 9D8       0.050700
     34 H4           3.1630     2.1570     0.9560 hc         1 9D8       0.050700
     35 H5           3.8820     1.7330    -1.8140 h1         1 9D8       0.066200
     36 H6           4.2650     0.0900    -2.2760 h1         1 9D8       0.066200
     37 H7           6.0550    -1.3230     2.2070 ha         1 9D8       0.131500
     38 H8           7.7240     0.4960     2.4000 ha         1 9D8       0.131000
     39 H9           7.6280     2.4130     0.8320 ha         1 9D8       0.131500
     40 H10          5.8830     2.5060    -0.8980 ha         1 9D8       0.132000
     41 H11          1.1320    -1.1470     1.2050 ha         1 9D8       0.148500
     42 H12         -1.1050    -1.9310     1.8110 ha         1 9D8       0.156000
     43 H13         -2.8840     0.6030    -1.4600 ha         1 9D8       0.148000
     44 H14         -2.4310     3.2310     1.8980 ha         1 9D8       0.152000
     45 H15         -3.6540     1.6180     3.3110 ha         1 9D8       0.146000
     46 H16         -4.5300    -0.4800     2.3480 ha         1 9D8       0.169000
     47 H17         -2.0200    -2.5140    -2.3530 ha         1 9D8       0.156000
     48 H18          0.2280    -1.7420    -2.9490 ha         1 9D8       0.148500
     49 H19         -4.4550    -1.2300    -1.1570 hn         1 9D8       0.433800
     50 H20          0.1690     2.3560     1.5860 hc         1 9D8       0.035367
     51 H21          1.4780     3.0650     2.5270 hc         1 9D8       0.035367
     52 H22          1.1350     3.6620     0.9060 hc         1 9D8       0.035367
     53 H23          4.3240    -1.2400     0.4790 ha         1 9D8       0.132000
@<TRIPOS>BOND
     1     1     2 1   
     2     1    28 1   
     3     1    31 1   
     4     1    32 1   
     5     2    29 1   
     6     2    33 1   
     7     2    34 1   
     8     3    22 2   
     9     4     5 1   
    10     4    28 1   
    11     4    35 1   
    12     4    36 1   
    13     5     9 ar  
    14     5    30 ar  
    15     6     7 ar  
    16     6    30 ar  
    17     6    37 1   
    18     7     8 ar  
    19     7    38 1   
    20     8     9 ar  
    21     8    39 1   
    22     9    40 1   
    23    10    11 ar  
    24    10    21 ar  
    25    10    26 1   
    26    11    12 ar  
    27    11    41 1   
    28    12    13 ar  
    29    12    42 1   
    30    13    20 ar  
    31    13    22 1   
    32    14    15 ar  
    33    14    19 ar  
    34    14    24 1   
    35    15    16 ar  
    36    15    43 1   
    37    16    17 ar  
    38    16    25 1   
    39    17    18 ar  
    40    17    44 1   
    41    18    19 ar  
    42    18    45 1   
    43    19    46 1   
    44    20    21 ar  
    45    20    47 1   
    46    21    48 1   
    47    22    23 2   
    48    22    24 1   
    49    24    49 1   
    50    26    27 2   
    51    26    28 1   
    52    29    50 1   
    53    29    51 1   
    54    29    52 1   
    55    30    53 1   
@<TRIPOS>SUBSTRUCTURE
     1 9D8         1 TEMP              0 ****  ****    0 ROOT
