@<TRIPOS>MOLECULE
9D8
   53    55     1     0     0
SMALL
No Charge or Current Charge


@<TRIPOS>ATOM
      1 C1           1.8080     1.5010    -0.8670 c3         1 9D8       0.104000
      2 C2           2.0630     2.2420     0.4640 c3         1 9D8      -0.096400
      3 O2          -3.1890    -3.0540     1.8240 o          1 9D8      -0.523500
      4 C4           4.1620     0.7560    -1.3570 c3         1 9D8       0.139300
      5 C5           5.0580     0.4710    -0.1560 ca         1 9D8      -0.102300
      6 C7           6.0640    -1.1160     1.4030 ca         1 9D8      -0.110500
      7 C8           6.7060    -0.0600     2.0710 ca         1 9D8      -0.107000
      8 C9           6.5280     1.2610     1.6260 ca         1 9D8      -0.110500
      9 C10          5.7080     1.5260     0.5160 ca         1 9D8      -0.100000
     10 C11          0.9250    -1.3640    -1.1270 ca         1 9D8      -0.082600
     11 C12          0.5410    -1.1680     0.2190 ca         1 9D8      -0.097000
     12 C13         -0.7000    -1.6320     0.6840 ca         1 9D8      -0.022000
     13 C14         -1.5750    -2.3050    -0.1910 ca         1 9D8      -0.295500
     14 C15         -3.7300    -0.1250     0.6990 ca         1 9D8       0.242000
     15 C16         -3.5240     0.9200    -0.2170 ca         1 9D8      -0.131000
     16 C17         -3.0960     2.1800     0.2330 ca         1 9D8       0.127000
     17 C18         -2.8850     2.4090     1.6020 ca         1 9D8      -0.104000
     18 C19         -3.1020     1.3720     2.5250 ca         1 9D8      -0.091000
     19 C20         -3.5230     0.1080     2.0720 ca         1 9D8      -0.085000
     20 C21         -1.1850    -2.5390    -1.5250 ca         1 9D8      -0.022000
     21 C22          0.0640    -2.0830    -1.9820 ca         1 9D8      -0.097000
     22 S           -3.2080    -2.7870     0.3830 sy         1 9D8       1.141600
     23 O1          -3.8390    -3.6920    -0.5800 o          1 9D8      -0.523500
     24 N1          -4.1110    -1.3780     0.2310 nu         1 9D8      -0.862100
     25 Cl          -2.8090     3.4720    -0.9240 cl         1 9D8      -0.198000
     26 C            2.2480    -0.8450    -1.6500 c          1 9D8       0.605700
     27 O            2.9040    -1.5140    -2.4410 o          1 9D8      -0.585100
     28 N            2.7460     0.3750    -1.1230 n          1 9D8      -0.401800
     29 C3           0.9700     3.2790     0.7870 c3         1 9D8      -0.090100
     30 C6           5.2430    -0.8510     0.2930 ca         1 9D8      -0.100000
     31 H1           0.7690     1.1500    -0.8830 h1         1 9D8       0.051200
     32 H2           1.8990     2.2210    -1.6910 h1         1 9D8       0.051200
     33 H3           2.1180     1.5150     1.2830 hc         1 9D8       0.050700
     34 H4           3.0340     2.7490     0.4220 hc         1 9D8       0.050700
     35 H5           4.2130     1.8260    -1.6010 h1         1 9D8       0.066200
     36 H6           4.5650     0.2280    -2.2310 h1         1 9D8       0.066200
     37 H7           6.2010    -2.1390     1.7460 ha         1 9D8       0.113500
     38 H8           7.3410    -0.2640     2.9310 ha         1 9D8       0.113000
     39 H9           7.0260     2.0800     2.1420 ha         1 9D8       0.113500
     40 H10          5.5780     2.5530     0.1800 ha         1 9D8       0.114000
     41 H11          1.2050    -0.6580     0.9110 ha         1 9D8       0.130500
     42 H12         -0.9830    -1.4480     1.7190 ha         1 9D8       0.138000
     43 H13         -3.6740     0.7550    -1.2790 ha         1 9D8       0.130000
     44 H14         -2.5540     3.3860     1.9450 ha         1 9D8       0.134000
     45 H15         -2.9430     1.5450     3.5880 ha         1 9D8       0.128000
     46 H16         -3.6930    -0.6880     2.7910 ha         1 9D8       0.151000
     47 H17         -1.8470    -3.0590    -2.2160 ha         1 9D8       0.138000
     48 H18          0.3490    -2.2610    -3.0170 ha         1 9D8       0.130500
     49 H19         -4.4030    -1.4050    -0.7370 hn         1 9D8       0.489000
     50 H20         -0.0080     2.7920     0.8800 hc         1 9D8       0.035367
     51 H21          1.1920     3.7860     1.7330 hc         1 9D8       0.035367
     52 H22          0.9070     4.0360    -0.0030 hc         1 9D8       0.035367
     53 H23          4.7510    -1.6760    -0.2180 ha         1 9D8       0.114000
@<TRIPOS>BOND
     1     1     2 1   
     2     1    28 1   
     3     1    31 1   
     4     1    32 1   
     5     2    29 1   
     6     2    33 1   
     7     2    34 1   
     8     3    22 2   
     9     4     5 1   
    10     4    28 1   
    11     4    35 1   
    12     4    36 1   
    13     5     9 ar  
    14     5    30 ar  
    15     6     7 ar  
    16     6    30 ar  
    17     6    37 1   
    18     7     8 ar  
    19     7    38 1   
    20     8     9 ar  
    21     8    39 1   
    22     9    40 1   
    23    10    11 ar  
    24    10    21 ar  
    25    10    26 1   
    26    11    12 ar  
    27    11    41 1   
    28    12    13 ar  
    29    12    42 1   
    30    13    20 ar  
    31    13    22 1   
    32    14    15 ar  
    33    14    19 ar  
    34    14    24 1   
    35    15    16 ar  
    36    15    43 1   
    37    16    17 ar  
    38    16    25 1   
    39    17    18 ar  
    40    17    44 1   
    41    18    19 ar  
    42    18    45 1   
    43    19    46 1   
    44    20    21 ar  
    45    20    47 1   
    46    21    48 1   
    47    22    23 2   
    48    22    24 1   
    49    24    49 1   
    50    26    27 2   
    51    26    28 1   
    52    29    50 1   
    53    29    51 1   
    54    29    52 1   
    55    30    53 1   
@<TRIPOS>SUBSTRUCTURE
     1 9D8         1 TEMP              0 ****  ****    0 ROOT
