@<TRIPOS>MOLECULE
9D9
   35    36     1     0     0
SMALL
No Charge or Current Charge


@<TRIPOS>ATOM
      1 O2P         -5.2320    -0.4110    -1.8130 o          1 9D9      -0.913500
      2 P           -5.1340     0.5570    -0.6780 p5         1 9D9       1.282500
      3 O3P         -4.7490     1.9010    -1.2080 o          1 9D9      -0.913500
      4 O1P         -6.4630     0.6570     0.0000 o          1 9D9      -0.913500
      5 C14         -3.8210    -0.0420     0.5620 c3         1 9D9      -0.097000
      6 F1          -3.7640     0.8200     1.6120 f          1 9D9      -0.178000
      7 F2          -4.1960    -1.2460     1.0710 f          1 9D9      -0.178000
      8 C13         -2.4050    -0.1730    -0.0690 c3         1 9D9      -0.117400
      9 C12         -1.2980    -0.6600     0.9020 c3         1 9D9      -0.070400
     10 C11          0.0870    -0.7750     0.2280 c3         1 9D9      -0.071400
     11 C10          1.1920    -1.2630     1.1890 c3         1 9D9      -0.006100
     12 C9           2.5360    -1.3870     0.5180 cc         1 9D9      -0.114300
     13 C8           3.1210    -2.5210     0.0040 cd         1 9D9      -0.151000
     14 N7           4.3700    -2.1440    -0.5170 na         1 9D9      -0.090000
     15 C5           4.5500    -0.7690    -0.3170 cd         1 9D9      -0.330600
     16 C4           3.4330    -0.3160     0.3120 cc         1 9D9       0.175400
     17 N3           3.2630     1.0020     0.6710 nc         1 9D9      -0.620100
     18 C2           4.2790     1.7670     0.3420 cd         1 9D9       0.667800
     19 N2           4.1680     3.0530     0.6580 nv         1 9D9      -1.038200
     20 N1           5.4170     1.3930    -0.2820 ns         1 9D9      -0.446400
     21 C6           5.6640     0.1170    -0.6650 c          1 9D9       0.614600
     22 O6           6.6910    -0.2310    -1.2250 o          1 9D9      -0.595000
     23 H3          -2.4610    -0.8650    -0.9180 hc         1 9D9       0.060200
     24 H4          -2.1120     0.8010    -0.4810 hc         1 9D9       0.060200
     25 H5          -1.2250     0.0330     1.7490 hc         1 9D9       0.027200
     26 H6          -1.5770    -1.6390     1.3110 hc         1 9D9       0.027200
     27 H7           0.0210    -1.4680    -0.6200 hc         1 9D9       0.036700
     28 H8           0.3730     0.2030    -0.1800 hc         1 9D9       0.036700
     29 H9           1.2640    -0.5730     2.0390 hc         1 9D9       0.041200
     30 H10          0.9010    -2.2360     1.6040 hc         1 9D9       0.041200
     31 H11          2.7560    -3.5420    -0.0330 h4         1 9D9       0.146000
     32 H12          5.0360    -2.7690    -0.9650 hn         1 9D9       0.351000
     33 H13          3.2370     3.3350     0.9410 hn         1 9D9       0.482500
     34 H14          4.6790     3.7240     0.0980 hn         1 9D9       0.482500
     35 H15          6.1410     2.0660    -0.4680 hn         1 9D9       0.310500
@<TRIPOS>BOND
     1     1     2 1   
     2     2     3 1   
     3     2     4 1   
     4     2     5 1   
     5     5     6 1   
     6     5     7 1   
     7     5     8 1   
     8     8     9 1   
     9     8    23 1   
    10     8    24 1   
    11     9    10 1   
    12     9    25 1   
    13     9    26 1   
    14    10    11 1   
    15    10    27 1   
    16    10    28 1   
    17    11    12 1   
    18    11    29 1   
    19    11    30 1   
    20    12    13 2   
    21    12    16 1   
    22    13    14 1   
    23    13    31 1   
    24    14    15 1   
    25    14    32 1   
    26    15    16 2   
    27    15    21 1   
    28    16    17 1   
    29    17    18 2   
    30    18    19 1   
    31    18    20 1   
    32    19    33 1   
    33    19    34 1   
    34    20    21 1   
    35    20    35 1   
    36    21    22 2   
@<TRIPOS>SUBSTRUCTURE
     1 9D9         1 TEMP              0 ****  ****    0 ROOT
