@<TRIPOS>MOLECULE
9D9
   35    36     1     0     0
SMALL
bcc


@<TRIPOS>ATOM
      1 O2P         -5.1200    -0.6090    -1.6970 o          1 9D9      -0.913500
      2 P           -5.0750     0.5570    -0.7100 p5         1 9D9       1.124700
      3 O3P         -4.5240     1.8600    -1.2870 o          1 9D9      -0.913500
      4 O1P         -6.3260     0.7170     0.1520 o          1 9D9      -0.913500
      5 C14         -3.7380     0.0290     0.5010 c3         1 9D9       0.303400
      6 F1          -3.6390     0.9590     1.5300 f          1 9D9      -0.299300
      7 F2          -4.1250    -1.1370     1.1500 f          1 9D9      -0.299300
      8 C13         -2.3630    -0.1810    -0.0850 c3         1 9D9      -0.117400
      9 C12         -1.2960    -0.6700     0.8880 c3         1 9D9      -0.070400
     10 C11          0.0710    -0.7810     0.2250 c3         1 9D9      -0.071400
     11 C10          1.1400    -1.3430     1.1630 c3         1 9D9      -0.006100
     12 C9           2.4940    -1.3950     0.5370 cc         1 9D9      -0.114300
     13 C8           3.1420    -2.4930     0.0100 cd         1 9D9      -0.118300
     14 N7           4.3400    -2.1280    -0.5050 na         1 9D9      -0.141100
     15 C5           4.4980    -0.7850    -0.3250 cd         1 9D9      -0.279900
     16 C4           3.3660    -0.2980     0.3210 cc         1 9D9       0.175400
     17 N3           3.1900     1.0100     0.6600 nc         1 9D9      -0.620100
     18 C2           4.1710     1.7990     0.3470 cd         1 9D9       0.667800
     19 N2           4.1390     3.1090     0.6950 nv         1 9D9      -0.927800
     20 N1           5.3080     1.3750    -0.2930 ns         1 9D9      -0.513400
     21 C6           5.5740     0.0660    -0.6840 c          1 9D9       0.757100
     22 O6           6.6170    -0.2260    -1.2550 o          1 9D9      -0.670500
     23 H3          -2.4650    -0.8870    -0.9130 hc         1 9D9       0.060200
     24 H4          -2.0550     0.7660    -0.5370 hc         1 9D9       0.060200
     25 H5          -1.2220     0.0100     1.7420 hc         1 9D9       0.027200
     26 H6          -1.5780    -1.6460     1.2930 hc         1 9D9       0.027200
     27 H7           0.0040    -1.4220    -0.6600 hc         1 9D9       0.036700
     28 H8           0.3890     0.2030    -0.1330 hc         1 9D9       0.036700
     29 H9           1.1790    -0.7270     2.0670 hc         1 9D9       0.041200
     30 H10          0.8430    -2.3450     1.4870 hc         1 9D9       0.041200
     31 H11          2.8180    -3.5220    -0.0260 h4         1 9D9       0.164000
     32 H12          5.0030    -2.7490    -0.9380 hn         1 9D9       0.300700
     33 H13          3.2360     3.4670     0.9590 hn         1 9D9       0.427300
     34 H14          4.7180     3.7650     0.1980 hn         1 9D9       0.427300
     35 H15          6.0280     2.0540    -0.5030 hn         1 9D9       0.310500
@<TRIPOS>BOND
     1     1     2 1   
     2     2     3 1   
     3     2     4 1   
     4     2     5 1   
     5     5     6 1   
     6     5     7 1   
     7     5     8 1   
     8     8     9 1   
     9     8    23 1   
    10     8    24 1   
    11     9    10 1   
    12     9    25 1   
    13     9    26 1   
    14    10    11 1   
    15    10    27 1   
    16    10    28 1   
    17    11    12 1   
    18    11    29 1   
    19    11    30 1   
    20    12    13 2   
    21    12    16 1   
    22    13    14 1   
    23    13    31 1   
    24    14    15 1   
    25    14    32 1   
    26    15    16 2   
    27    15    21 1   
    28    16    17 1   
    29    17    18 2   
    30    18    19 1   
    31    18    20 1   
    32    19    33 1   
    33    19    34 1   
    34    20    21 1   
    35    20    35 1   
    36    21    22 2   
@<TRIPOS>SUBSTRUCTURE
     1 9D9         1 TEMP              0 ****  ****    0 ROOT
