@<TRIPOS>MOLECULE
9DA
   16    17     1     0     0
SMALL
abcg2


@<TRIPOS>ATOM
      1 N1          -0.3030     0.0200     1.9670 nb         1 9DA      -0.272000
      2 C2          -1.5340    -0.0060     1.4460 ca         1 9DA       0.138900
      3 N3          -1.8850    -0.0220     0.1830 nb         1 9DA      -0.168000
      4 C4          -0.8430    -0.0070    -0.6750 ca         1 9DA       0.124800
      5 C5           0.4870     0.0230    -0.2370 ca         1 9DA      -0.219200
      6 C6           0.7420     0.0360     1.1430 ca         1 9DA       0.389900
      7 N6           1.9800     0.1030     1.6690 nv         1 9DA      -1.073900
      8 N7           1.2930     0.0370    -1.3400 na         1 9DA      -0.203700
      9 C8           0.5120     0.0170    -2.4510 cc         1 9DA      -0.150100
     10 C9          -0.8120    -0.0100    -2.0960 cd         1 9DA      -0.359800
     11 HC2         -2.3390    -0.0180     2.1740 h5         1 9DA       0.044100
     12 HN61         2.7860    -0.1250     1.1120 hn         1 9DA       0.483500
     13 HN62         2.0770    -0.0510     2.6590 hn         1 9DA       0.483500
     14 HN7          2.2990     0.0640    -1.3540 hn         1 9DA       0.348000
     15 HC8          0.9610     0.0260    -3.4310 h4         1 9DA       0.214000
     16 HC9         -1.6530    -0.0300    -2.7690 ha         1 9DA       0.219000
@<TRIPOS>BOND
     1     1     2 ar  
     2     1     6 ar  
     3     2     3 ar  
     4     2    11 1   
     5     3     4 ar  
     6     4     5 ar  
     7     4    10 1   
     8     5     6 ar  
     9     5     8 1   
    10     6     7 1   
    11     7    12 1   
    12     7    13 1   
    13     8     9 1   
    14     8    14 1   
    15     9    10 2   
    16     9    15 1   
    17    10    16 1   
@<TRIPOS>SUBSTRUCTURE
     1 9DA         1 TEMP              0 ****  ****    0 ROOT
