@<TRIPOS>MOLECULE
9DA
   16    17     1     0     0
SMALL
No Charge or Current Charge


@<TRIPOS>ATOM
      1 N1          -0.2990     0.0420     2.0160 nb         1 9DA      -0.272000
      2 C2          -1.5560    -0.0010     1.4890 ca         1 9DA       0.138900
      3 N3          -1.8860    -0.0280     0.1730 nb         1 9DA      -0.168000
      4 C4          -0.8260    -0.0080    -0.6490 ca         1 9DA       0.124800
      5 C5           0.4710     0.0360    -0.2380 ca         1 9DA      -0.219200
      6 C6           0.7240     0.0600     1.1400 ca         1 9DA       0.389900
      7 N6           1.9760     0.0960     1.6710 nv         1 9DA      -1.073900
      8 N7           1.3110     0.0540    -1.3500 na         1 9DA      -0.203700
      9 C8           0.5360     0.0160    -2.5330 cc         1 9DA      -0.150100
     10 C9          -0.7810    -0.0220    -2.0840 cd         1 9DA      -0.359800
     11 HC2         -2.3810    -0.0160     2.1990 h5         1 9DA       0.044100
     12 HN61         2.7650    -0.1570     1.0820 hn         1 9DA       0.483500
     13 HN62         2.0810    -0.0790     2.6680 hn         1 9DA       0.483500
     14 HN7          2.3260     0.0990    -1.3190 hn         1 9DA       0.348000
     15 HC8          0.9640     0.0210    -3.5340 h4         1 9DA       0.214000
     16 HC9         -1.6550    -0.0550    -2.7300 ha         1 9DA       0.219000
@<TRIPOS>BOND
     1     1     2 ar  
     2     1     6 ar  
     3     2     3 ar  
     4     2    11 1   
     5     3     4 ar  
     6     4     5 ar  
     7     4    10 1   
     8     5     6 ar  
     9     5     8 1   
    10     6     7 1   
    11     7    12 1   
    12     7    13 1   
    13     8     9 1   
    14     8    14 1   
    15     9    10 2   
    16     9    15 1   
    17    10    16 1   
@<TRIPOS>SUBSTRUCTURE
     1 9DA         1 TEMP              0 ****  ****    0 ROOT
