@<TRIPOS>MOLECULE
9DB
   56    60     1     0     0
SMALL
bcc


@<TRIPOS>ATOM
      1 C1          -4.8230     2.4460     0.1270 cc         1 9DB      -0.124300
      2 C2          -4.6180     1.1100    -0.1750 cd         1 9DB      -0.250100
      3 C3          -5.9160     0.6240    -0.4370 cd         1 9DB       0.338200
      4 C4          -3.3570     0.4090    -0.2200 cd         1 9DB       0.088700
      5 C5          -1.1460     0.1960    -0.5190 ca         1 9DB      -0.043200
      6 C6           0.2020     0.4140    -0.7640 ca         1 9DB      -0.158000
      7 C7           1.0550    -0.6710    -0.6430 ca         1 9DB       0.060600
      8 C8           3.4410    -0.8680    -0.1120 c          1 9DB       0.625100
      9 C18         -1.2260    -3.5190     0.2930 c          1 9DB       0.716100
     10 N5          -2.5330    -3.8150     0.5820 ns         1 9DB      -0.337900
     11 N6          -3.7140    -3.1670     0.7700 nd         1 9DB      -0.445300
     12 C19         -3.9360    -1.9350     0.5280 cc         1 9DB       0.442500
     13 C20         -3.0510    -0.9160     0.0480 cc         1 9DB      -0.236800
     14 N1          -6.8170     1.5740    -0.3040 nc         1 9DB      -0.515800
     15 N           -6.1390     2.6650     0.0380 na         1 9DB       0.122400
     16 C           -6.8380     3.9070     0.2750 c3         1 9DB       0.040600
     17 C21         -1.6470    -1.0620    -0.1480 ca         1 9DB      -0.053800
     18 N2          -2.2050     1.0580    -0.5540 na         1 9DB      -0.163400
     19 C17         -0.7760    -2.1440    -0.0370 ca         1 9DB      -0.090600
     20 C16          0.5700    -1.9390    -0.2910 ca         1 9DB      -0.082000
     21 N3           2.4230    -0.4880    -0.9220 ns         1 9DB      -0.486100
     22 O            3.2750    -1.4930     0.9220 o          1 9DB      -0.576100
     23 C9           4.8340    -0.4630    -0.5930 c3         1 9DB       0.096500
     24 N4           5.7530    -1.5840    -0.5810 n8         1 9DB      -0.878800
     25 C10          5.3730     0.6920     0.2670 c6         1 9DB      -0.051700
     26 C15          6.7270     1.1660    -0.2640 c6         1 9DB      -0.071400
     27 C14          7.2870     2.3320     0.5430 c6         1 9DB      -0.073400
     28 C13          6.3020     3.4930     0.5960 c6         1 9DB      -0.075400
     29 C12          4.9560     3.0330     1.1410 c6         1 9DB      -0.073400
     30 C11          4.3900     1.8630     0.3410 c6         1 9DB      -0.071400
     31 H1          -4.1310     3.2260     0.4050 h4         1 9DB       0.173000
     32 H2          -6.2090    -0.3690    -0.7410 h4         1 9DB       0.050100
     33 H3           0.5780     1.3930    -1.0360 ha         1 9DB       0.136000
     34 H4          -2.6470    -4.7960     0.7900 hn         1 9DB       0.337500
     35 H5          -4.9570    -1.6430     0.7510 h4         1 9DB       0.033800
     36 H6          -7.3700     4.2150    -0.6230 h1         1 9DB       0.061367
     37 H7          -7.5480     3.7880     1.0900 h1         1 9DB       0.061367
     38 H8          -6.1160     4.6730     0.5410 h1         1 9DB       0.061367
     39 H9          -2.1560     2.0210    -0.8470 hn         1 9DB       0.299700
     40 H10          1.2530    -2.7730    -0.2430 ha         1 9DB       0.174000
     41 H11          2.6520     0.1020    -1.7080 hn         1 9DB       0.319500
     42 H12          4.7640    -0.1040    -1.6260 h1         1 9DB       0.059700
     43 H13          5.7780    -1.9920     0.3460 hn         1 9DB       0.355800
     44 H14          5.4220    -2.3130    -1.2010 hn         1 9DB       0.355800
     45 H16          5.5180     0.3070     1.2870 hc         1 9DB       0.065700
     46 H17          7.4330     0.3350    -0.2690 hc         1 9DB       0.042450
     47 H18          6.6060     1.4790    -1.3090 hc         1 9DB       0.042450
     48 H19          7.5100     1.9970     1.5620 hc         1 9DB       0.040450
     49 H20          8.2370     2.6560     0.1120 hc         1 9DB       0.040450
     50 H21          6.7000     4.3080     1.2070 hc         1 9DB       0.037700
     51 H22          6.1660     3.8980    -0.4130 hc         1 9DB       0.037700
     52 H23          5.0740     2.7250     2.1850 hc         1 9DB       0.040450
     53 H24          4.2400     3.8590     1.1410 hc         1 9DB       0.040450
     54 H25          4.1490     2.1980    -0.6760 hc         1 9DB       0.042450
     55 H26          3.4460     1.5520     0.7950 hc         1 9DB       0.042450
     56 O1          -0.4290    -4.4440     0.3070 o          1 9DB      -0.623500
@<TRIPOS>BOND
     1     1     2 2   
     2     1    15 1   
     3     1    31 1   
     4     2     3 1   
     5     2     4 1   
     6     3    14 2   
     7     3    32 1   
     8     4    13 2   
     9     4    18 1   
    10     5     6 ar  
    11     5    17 ar  
    12     5    18 1   
    13     6     7 ar  
    14     6    33 1   
    15     7    20 ar  
    16     7    21 1   
    17     8    21 1   
    18     8    22 2   
    19     8    23 1   
    20     9    10 1   
    21     9    19 1   
    22     9    56 2   
    23    10    11 1   
    24    10    34 1   
    25    11    12 2   
    26    12    13 1   
    27    12    35 1   
    28    13    17 1   
    29    14    15 1   
    30    15    16 1   
    31    16    36 1   
    32    16    37 1   
    33    16    38 1   
    34    17    19 ar  
    35    18    39 1   
    36    19    20 ar  
    37    20    40 1   
    38    21    41 1   
    39    23    24 1   
    40    23    25 1   
    41    23    42 1   
    42    24    43 1   
    43    24    44 1   
    44    25    26 1   
    45    25    30 1   
    46    25    45 1   
    47    26    27 1   
    48    26    46 1   
    49    26    47 1   
    50    27    28 1   
    51    27    48 1   
    52    27    49 1   
    53    28    29 1   
    54    28    50 1   
    55    28    51 1   
    56    29    30 1   
    57    29    52 1   
    58    29    53 1   
    59    30    54 1   
    60    30    55 1   
@<TRIPOS>SUBSTRUCTURE
     1 9DB         1 TEMP              0 ****  ****    0 ROOT
