@<TRIPOS>MOLECULE
9DB
   56    60     1     0     0
SMALL
No Charge or Current Charge


@<TRIPOS>ATOM
      1 C1          -5.2310     2.1460    -0.9060 cc         1 9DB      -0.157000
      2 C2          -4.9870     0.9320    -0.3190 cd         1 9DB      -0.184800
      3 C3          -6.2470     0.3630    -0.0000 cd         1 9DB       0.272900
      4 C4          -3.6310     0.4390    -0.1530 cd         1 9DB       0.088700
      5 C5          -1.4240     0.3860    -0.4220 ca         1 9DB      -0.043200
      6 C6          -0.1100     0.6840    -0.7900 ca         1 9DB      -0.140000
      7 C7           0.9080    -0.2190    -0.4350 ca         1 9DB      -0.032000
      8 C8           3.4280    -0.6060    -0.7800 c          1 9DB       0.558100
      9 C18         -1.0600    -2.9460     1.4380 c          1 9DB       0.573600
     10 N5          -2.3310    -3.3050     1.8740 ns         1 9DB      -0.270900
     11 N6          -3.6180    -2.7890     1.8120 nd         1 9DB      -0.445300
     12 C19         -3.9720    -1.6630     1.1990 cc         1 9DB       0.442500
     13 C20         -3.1670    -0.7260     0.4790 cc         1 9DB      -0.236800
     14 N1          -7.2500     1.1530    -0.3370 nc         1 9DB      -0.515800
     15 N           -6.6170     2.2470    -0.8890 na         1 9DB       0.143800
     16 C           -7.4120     3.3740    -1.3970 c3         1 9DB       0.069900
     17 C21         -1.7490    -0.7500     0.2730 ca         1 9DB      -0.053800
     18 N2          -2.5400     1.1490    -0.6870 na         1 9DB      -0.213700
     19 C17         -0.7740    -1.6780     0.6640 ca         1 9DB      -0.090600
     20 C16          0.5690    -1.3890     0.2930 ca         1 9DB      -0.064000
     21 N3           2.2370     0.1120    -0.8170 ns         1 9DB      -0.160000
     22 O            3.5090    -1.7810    -0.4350 o          1 9DB      -0.576100
     23 C9           4.6830     0.2000    -1.2790 c3         1 9DB       0.096500
     24 N4           5.4320    -0.4770    -2.3960 n8         1 9DB      -0.989200
     25 C10          5.6420     0.6120    -0.1030 c6         1 9DB      -0.051700
     26 C15          6.7860     1.5600    -0.5830 c6         1 9DB      -0.071400
     27 C14          7.7320     1.9620     0.5760 c6         1 9DB      -0.073400
     28 C13          6.9490     2.6170     1.7370 c6         1 9DB      -0.075400
     29 C12          5.8220     1.6840     2.2360 c6         1 9DB      -0.073400
     30 C11          4.8720     1.2790     1.0820 c6         1 9DB      -0.071400
     31 H1          -4.5860     2.9160    -1.3090 h4         1 9DB       0.155000
     32 H2          -6.4980    -0.5930     0.4320 h4         1 9DB       0.050100
     33 H3           0.1160     1.5940    -1.3410 ha         1 9DB       0.118000
     34 H4          -2.2700    -4.1860     2.3780 hn         1 9DB       0.337500
     35 H5          -5.0220    -1.5010     1.3360 h4         1 9DB       0.033800
     36 H6          -8.0580     3.0280    -2.2120 h1         1 9DB       0.061367
     37 H7          -8.0310     3.7800    -0.5880 h1         1 9DB       0.061367
     38 H8          -6.7460     4.1600    -1.7710 h1         1 9DB       0.061367
     39 H9          -2.5770     2.0220    -1.1980 hn         1 9DB       0.350000
     40 H10          1.3490    -2.0820     0.5910 ha         1 9DB       0.156000
     41 H11          2.3340     1.0560    -1.1710 hn         1 9DB       0.153000
     42 H12          4.2930     1.1400    -1.6950 h1         1 9DB       0.059700
     43 H13          5.7000    -1.4220    -2.0910 hn         1 9DB       0.411000
     44 H14          4.7930    -0.6600    -3.1820 hn         1 9DB       0.411000
     45 H16          6.0950    -0.3190     0.2690 hc         1 9DB       0.065700
     46 H17          7.3810     1.0780    -1.3700 hc         1 9DB       0.042450
     47 H18          6.3550     2.4650    -1.0330 hc         1 9DB       0.042450
     48 H19          8.2660     1.0740     0.9430 hc         1 9DB       0.040450
     49 H20          8.4990     2.6560     0.2070 hc         1 9DB       0.040450
     50 H21          7.6340     2.8520     2.5640 hc         1 9DB       0.037700
     51 H22          6.5200     3.5730     1.4040 hc         1 9DB       0.037700
     52 H23          6.2610     0.7830     2.6880 hc         1 9DB       0.040450
     53 H24          5.2510     2.1830     3.0310 hc         1 9DB       0.040450
     54 H25          4.3340     2.1680     0.7230 hc         1 9DB       0.042450
     55 H26          4.1120     0.5960     1.4840 hc         1 9DB       0.042450
     56 O1          -0.1470    -3.7140     1.7130 o          1 9DB      -0.548000
@<TRIPOS>BOND
     1     1     2 2   
     2     1    15 1   
     3     1    31 1   
     4     2     3 1   
     5     2     4 1   
     6     3    14 2   
     7     3    32 1   
     8     4    13 2   
     9     4    18 1   
    10     5     6 ar  
    11     5    17 ar  
    12     5    18 1   
    13     6     7 ar  
    14     6    33 1   
    15     7    20 ar  
    16     7    21 1   
    17     8    21 1   
    18     8    22 2   
    19     8    23 1   
    20     9    10 1   
    21     9    19 1   
    22     9    56 2   
    23    10    11 1   
    24    10    34 1   
    25    11    12 2   
    26    12    13 1   
    27    12    35 1   
    28    13    17 1   
    29    14    15 1   
    30    15    16 1   
    31    16    36 1   
    32    16    37 1   
    33    16    38 1   
    34    17    19 ar  
    35    18    39 1   
    36    19    20 ar  
    37    20    40 1   
    38    21    41 1   
    39    23    24 1   
    40    23    25 1   
    41    23    42 1   
    42    24    43 1   
    43    24    44 1   
    44    25    26 1   
    45    25    30 1   
    46    25    45 1   
    47    26    27 1   
    48    26    46 1   
    49    26    47 1   
    50    27    28 1   
    51    27    48 1   
    52    27    49 1   
    53    28    29 1   
    54    28    50 1   
    55    28    51 1   
    56    29    30 1   
    57    29    52 1   
    58    29    53 1   
    59    30    54 1   
    60    30    55 1   
@<TRIPOS>SUBSTRUCTURE
     1 9DB         1 TEMP              0 ****  ****    0 ROOT
