@<TRIPOS>MOLECULE
9DC
   14    13     1     0     0
SMALL
No Charge or Current Charge


@<TRIPOS>ATOM
      1 OAE          2.4910     1.3370     0.2200 oh         1 9DC      -0.663000
      2 CAD          2.0030     0.0290    -0.1190 c3         1 9DC       0.162600
      3 CAC          0.5260    -0.1450     0.3200 c3         1 9DC       0.094300
      4 SAF         -0.0370    -1.9090     0.1240 sh         1 9DC      -0.418800
      5 CAB         -0.4170     0.8560    -0.3940 c3         1 9DC       0.079600
      6 SAA         -2.1740     0.8230     0.2120 sh         1 9DC      -0.418800
      7 H1           3.4350     1.3720    -0.0570 ho         1 9DC       0.449000
      8 H2           2.0790    -0.1390    -1.2020 h1         1 9DC       0.031200
      9 H3           2.6110    -0.7370     0.3790 h1         1 9DC       0.031200
     10 H4           0.4840     0.0770     1.3950 h1         1 9DC       0.109700
     11 H5           0.0590    -1.9490    -1.2280 hs         1 9DC       0.207800
     12 H6          -0.0390     1.8770    -0.2530 h1         1 9DC       0.070200
     13 H7          -0.4180     0.6480    -1.4710 h1         1 9DC       0.070200
     14 H8          -2.6380     1.7860    -0.6220 hs         1 9DC       0.194800
@<TRIPOS>BOND
     1     1     2 1   
     2     1     7 1   
     3     2     3 1   
     4     2     8 1   
     5     2     9 1   
     6     3     4 1   
     7     3     5 1   
     8     3    10 1   
     9     4    11 1   
    10     5     6 1   
    11     5    12 1   
    12     5    13 1   
    13     6    14 1   
@<TRIPOS>SUBSTRUCTURE
     1 9DC         1 TEMP              0 ****  ****    0 ROOT
