@<TRIPOS>MOLECULE
9DC
   14    13     1     0     0
SMALL
abcg2


@<TRIPOS>ATOM
      1 OAE          2.4010     1.3360     0.1340 oh         1 9DC      -0.663000
      2 CAD          1.9790     0.0120    -0.0920 c3         1 9DC       0.162600
      3 CAC          0.5140    -0.1040     0.3030 c3         1 9DC       0.094300
      4 SAF         -0.0300    -1.8370     0.1380 sh         1 9DC      -0.418800
      5 CAB         -0.3750     0.8430    -0.4850 c3         1 9DC       0.079600
      6 SAA         -2.1230     0.6310    -0.0030 sh         1 9DC      -0.418800
      7 H1           3.3180     1.4110    -0.1470 ho         1 9DC       0.449000
      8 H2           2.0880    -0.2760    -1.1460 h1         1 9DC       0.031200
      9 H3           2.5560    -0.7070     0.5010 h1         1 9DC       0.031200
     10 H4           0.4070     0.1050     1.3710 h1         1 9DC       0.109700
     11 H5           0.0770    -1.9150    -1.1950 hs         1 9DC       0.207800
     12 H6          -0.0850     1.8730    -0.2830 h1         1 9DC       0.070200
     13 H7          -0.2610     0.6620    -1.5560 h1         1 9DC       0.070200
     14 H8          -2.5010     1.8930    -0.2370 hs         1 9DC       0.194800
@<TRIPOS>BOND
     1     1     2 1   
     2     1     7 1   
     3     2     3 1   
     4     2     8 1   
     5     2     9 1   
     6     3     4 1   
     7     3     5 1   
     8     3    10 1   
     9     4    11 1   
    10     5     6 1   
    11     5    12 1   
    12     5    13 1   
    13     6    14 1   
@<TRIPOS>SUBSTRUCTURE
     1 9DC         1 TEMP              0 ****  ****    0 ROOT
