@<TRIPOS>MOLECULE
9DE
   32    33     1     0     0
SMALL
No Charge or Current Charge


@<TRIPOS>ATOM
      1 CAA          2.2700     1.1130    -1.8400 ca         1 9DE      -0.142500
      2 CAB          3.1700     0.0470    -1.6710 ca         1 9DE      -0.001000
      3 CAC          3.3700    -0.5080    -0.3910 ca         1 9DE      -0.327500
      4 SAR          4.5160    -1.8700    -0.1740 sy         1 9DE       1.144600
      5 OAS          4.2880    -2.5140     1.1160 o          1 9DE      -0.527000
      6 OAT          4.6720    -2.6150    -1.4230 o          1 9DE      -0.527000
      7 NAU          5.9260    -1.0680     0.0280 n8         1 9DE      -0.998100
      8 CAD          2.6660     0.0160     0.7130 ca         1 9DE      -0.001000
      9 CAE          1.7690     1.0820     0.5310 ca         1 9DE      -0.142500
     10 CAF          1.5600     1.6330    -0.7470 ca         1 9DE       0.300000
     11 NAG          0.6770     2.6860    -0.9710 nu         1 9DE      -0.876100
     12 SAH         -0.6700     3.1650    -0.0920 sy         1 9DE       1.153600
     13 OAI         -0.1350     3.6580     1.1790 o          1 9DE      -0.521000
     14 OAJ         -1.3630     4.0360    -1.0430 o          1 9DE      -0.521000
     15 CAK         -1.6270     1.6620     0.1530 ca         1 9DE      -0.305500
     16 CAL         -1.6900     1.0520     1.4240 ca         1 9DE      -0.013000
     17 CAM         -2.4290    -0.1310     1.5990 ca         1 9DE      -0.104500
     18 CAN         -3.1040    -0.7060     0.5100 ca         1 9DE       0.031100
     19 Br          -4.1070    -2.3170     0.7530 br         1 9DE      -0.070100
     20 CAO         -3.0460    -0.1010    -0.7560 ca         1 9DE      -0.104500
     21 CAP         -2.3080     1.0820    -0.9380 ca         1 9DE      -0.013000
     22 H1           2.1250     1.5320    -2.8310 ha         1 9DE       0.138000
     23 H2           3.7080    -0.3420    -2.5360 ha         1 9DE       0.142000
     24 H3           6.2500    -1.4690     0.9050 hn         1 9DE       0.477500
     25 H4           5.6050    -0.1400     0.2890 hn         1 9DE       0.477500
     26 H5           2.8080    -0.3960     1.7110 ha         1 9DE       0.142000
     27 H6           1.2480     1.4750     1.3960 ha         1 9DE       0.138000
     28 H7           0.4980     2.9510    -1.9290 hn         1 9DE       0.493000
     29 H8          -1.1720     1.4860     2.2780 ha         1 9DE       0.141000
     30 H9          -2.4760    -0.6010     2.5780 ha         1 9DE       0.139000
     31 H10         -3.5700    -0.5480    -1.5980 ha         1 9DE       0.139000
     32 H11         -2.2660     1.5400    -1.9250 ha         1 9DE       0.141000
@<TRIPOS>BOND
     1     1     2 ar  
     2     1    10 ar  
     3     1    22 1   
     4     2     3 ar  
     5     2    23 1   
     6     3     4 1   
     7     3     8 ar  
     8     4     5 2   
     9     4     6 2   
    10     4     7 1   
    11     7    24 1   
    12     7    25 1   
    13     8     9 ar  
    14     8    26 1   
    15     9    10 ar  
    16     9    27 1   
    17    10    11 1   
    18    11    12 1   
    19    11    28 1   
    20    12    13 2   
    21    12    14 2   
    22    12    15 1   
    23    15    16 ar  
    24    15    21 ar  
    25    16    17 ar  
    26    16    29 1   
    27    17    18 ar  
    28    17    30 1   
    29    18    19 1   
    30    18    20 ar  
    31    20    21 ar  
    32    20    31 1   
    33    21    32 1   
@<TRIPOS>SUBSTRUCTURE
     1 9DE         1 TEMP              0 ****  ****    0 ROOT
