@<TRIPOS>MOLECULE
9DE
   32    33     1     0     0
SMALL
bcc


@<TRIPOS>ATOM
      1 CAA          1.6440     0.7510    -1.3620 ca         1 9DE      -0.160500
      2 CAB          2.4850    -0.3320    -1.1750 ca         1 9DE      -0.019000
      3 CAC          3.2270    -0.4190    -0.0060 ca         1 9DE      -0.327500
      4 SAR          4.3200    -1.7950     0.2380 sy         1 9DE       1.286200
      5 OAS          4.4540    -2.0060     1.6690 o          1 9DE      -0.597800
      6 OAT          3.8740    -2.8750    -0.6250 o          1 9DE      -0.597800
      7 NAU          5.8050    -1.3500    -0.3030 n8         1 9DE      -0.887700
      8 CAD          3.1470     0.5670     0.9680 ca         1 9DE      -0.019000
      9 CAE          2.3240     1.6610     0.7660 ca         1 9DE      -0.160500
     10 CAF          1.5640     1.7510    -0.3970 ca         1 9DE       0.161600
     11 NAG          0.7260     2.8660    -0.6160 nu         1 9DE      -0.682500
     12 SAH         -0.6360     3.0750     0.3270 sy         1 9DE       1.295200
     13 OAI         -0.2020     3.1460     1.7070 o          1 9DE      -0.591800
     14 OAJ         -1.3510     4.1770    -0.2850 o          1 9DE      -0.591800
     15 CAK         -1.5690     1.5860     0.1260 ca         1 9DE      -0.305500
     16 CAL         -1.3750     0.5350     1.0120 ca         1 9DE      -0.031000
     17 CAM         -2.0630    -0.6520     0.8210 ca         1 9DE      -0.122500
     18 CAN         -2.9350    -0.7660    -0.2530 ca         1 9DE       0.031100
     19 BR          -3.8710    -2.3760    -0.5110 br         1 9DE      -0.070100
     20 CAO         -3.1320     0.2850    -1.1390 ca         1 9DE      -0.122500
     21 CAP         -2.4410     1.4700    -0.9490 ca         1 9DE      -0.031000
     22 H1           1.0460     0.8140    -2.2620 ha         1 9DE       0.156000
     23 H2           2.5390    -1.1010    -1.9320 ha         1 9DE       0.160000
     24 H3           6.2310    -0.6000     0.2300 hn         1 9DE       0.422300
     25 H4           5.8430    -1.1630    -1.2990 hn         1 9DE       0.422300
     26 H5           3.7280     0.5050     1.8780 ha         1 9DE       0.160000
     27 H6           2.2870     2.4460     1.5070 ha         1 9DE       0.156000
     28 H7           0.5260     3.0520    -1.5940 hn         1 9DE       0.437800
     29 H8          -0.7030     0.6250     1.8540 ha         1 9DE       0.159000
     30 H9          -1.9140    -1.4700     1.5120 ha         1 9DE       0.157000
     31 H10         -3.8170     0.1950    -1.9710 ha         1 9DE       0.157000
     32 H11         -2.5980     2.2890    -1.6380 ha         1 9DE       0.159000
@<TRIPOS>BOND
     1     1     2 ar  
     2     1    10 ar  
     3     1    22 1   
     4     2     3 ar  
     5     2    23 1   
     6     3     4 1   
     7     3     8 ar  
     8     4     5 2   
     9     4     6 2   
    10     4     7 1   
    11     7    24 1   
    12     7    25 1   
    13     8     9 ar  
    14     8    26 1   
    15     9    10 ar  
    16     9    27 1   
    17    10    11 1   
    18    11    12 1   
    19    11    28 1   
    20    12    13 2   
    21    12    14 2   
    22    12    15 1   
    23    15    16 ar  
    24    15    21 ar  
    25    16    17 ar  
    26    16    29 1   
    27    17    18 ar  
    28    17    30 1   
    29    18    19 1   
    30    18    20 ar  
    31    20    21 ar  
    32    20    31 1   
    33    21    32 1   
@<TRIPOS>SUBSTRUCTURE
     1 9DE         1 TEMP              0 ****  ****    0 ROOT
