@<TRIPOS>MOLECULE
9DF
   70    73     1     0     0
SMALL
bcc


@<TRIPOS>ATOM
      1 C10        -16.2830   -14.3420    31.1050 c3         1 9DF      -0.080400
      2 C2         -15.7850   -12.6460    35.3580 c          1 9DF       0.794100
      3 C4         -16.1230   -14.8240    36.5770 c6         1 9DF       0.096000
      4 C6         -17.3810   -16.1490    34.8560 c          1 9DF       0.713500
      5 C9         -16.9520   -15.6650    31.4960 c3         1 9DF      -0.056700
      6 N3         -15.6370   -14.0160    35.4760 n          1 9DF      -0.491800
      7 O1         -15.4450   -12.0580    34.3380 o          1 9DF      -0.621100
      8 C5         -17.4520   -15.4370    36.1860 c6         1 9DF      -0.189400
      9 C8         -16.2920   -16.3840    32.6960 c6         1 9DF       0.030700
     10 C11        -16.6810   -13.8560    29.7170 c3         1 9DF      -0.087100
     11 C17        -15.3750   -14.7680    34.2880 c6         1 9DF       0.266100
     12 C18        -14.0760   -15.5480    34.3810 c6         1 9DF       0.077000
     13 C21        -11.4900   -15.6330    32.9110 ca         1 9DF      -0.096300
     14 C22        -11.4770   -14.6920    31.8410 ca         1 9DF      -0.016000
     15 C23        -12.3350   -14.7900    30.7180 ca         1 9DF      -0.118000
     16 C24        -12.2980   -13.8550    29.7180 ca         1 9DF      -0.123000
     17 C25        -11.4020   -12.7700    29.7830 ca         1 9DF      -0.122000
     18 C26        -10.5490   -12.6550    30.8450 ca         1 9DF      -0.118000
     19 C27        -10.5590   -13.6080    31.8900 ca         1 9DF      -0.039000
     20 C28         -9.6610   -13.4990    32.9780 ca         1 9DF      -0.104000
     21 C29         -9.6710   -14.4280    33.9780 ca         1 9DF      -0.133000
     22 C30        -10.5960   -15.4910    33.9410 ca         1 9DF      -0.121000
     23 C31        -14.8450   -16.7480    32.3690 c          1 9DF       0.698500
     24 C35        -16.2680   -10.5500    36.5160 c3         1 9DF       0.112000
     25 C36        -14.9450   -10.0300    37.0720 c3         1 9DF      -0.105400
     26 C37        -14.9620    -8.5080    37.1570 c3         1 9DF      -0.148400
     27 C38        -13.7380    -7.9240    37.8040 c3         1 9DF       0.664900
     28 C46        -18.4470   -15.4820    31.7300 c3         1 9DF      -0.086100
     29 F40        -12.6040    -8.2690    37.1730 f          1 9DF      -0.238967
     30 F41        -13.7740    -6.5820    37.8190 f          1 9DF      -0.238967
     31 F42        -13.5960    -8.3160    39.0810 f          1 9DF      -0.238967
     32 N7         -16.4530   -15.7030    33.9680 n          1 9DF      -0.492800
     33 N19        -13.8500   -16.3090    33.1670 n          1 9DF      -0.468800
     34 N34        -16.3050   -11.9920    36.4200 ns         1 9DF      -0.578900
     35 O32        -14.6420   -17.4340    31.3760 o          1 9DF      -0.639500
     36 O33        -18.1530   -17.0580    34.5950 o          1 9DF      -0.626500
     37 H1         -15.1940   -14.4480    31.1250 hc         1 9DF       0.045700
     38 H2         -16.5290   -13.5680    31.8390 hc         1 9DF       0.045700
     39 H3         -15.3930   -15.6070    36.7880 h1         1 9DF       0.057200
     40 H4         -16.1980   -14.2580    37.5010 h1         1 9DF       0.057200
     41 H5         -16.8300   -16.3550    30.6560 hc         1 9DF       0.071700
     42 H6         -18.2160   -14.6570    36.1100 hc         1 9DF       0.082700
     43 H7         -17.7930   -16.1510    36.9350 hc         1 9DF       0.082700
     44 H8         -16.7950   -17.3490    32.7930 h1         1 9DF       0.107700
     45 H9         -16.1350   -12.9490    29.4540 hc         1 9DF       0.032700
     46 H10        -16.4560   -14.6080    28.9590 hc         1 9DF       0.032700
     47 H11        -17.7440   -13.6240    29.6490 hc         1 9DF       0.032700
     48 H12        -15.2750   -14.0630    33.4670 h2         1 9DF       0.118700
     49 H13        -14.0600   -16.2110    35.2510 h1         1 9DF       0.058700
     50 H14        -13.2650   -14.8290    34.5010 h1         1 9DF       0.058700
     51 H15        -12.4550   -17.3500    32.0350 h1         1 9DF       0.067200
     52 H16        -12.2100   -17.4450    33.7690 h1         1 9DF       0.067200
     53 H17        -13.0180   -15.6220    30.6220 ha         1 9DF       0.149000
     54 H18        -12.9600   -13.9540    28.8670 ha         1 9DF       0.134000
     55 H19        -11.3870   -12.0370    28.9870 ha         1 9DF       0.132000
     56 H20         -9.8480   -11.8310    30.8970 ha         1 9DF       0.130000
     57 H21         -8.9650   -12.6690    33.0030 ha         1 9DF       0.133000
     58 H22         -8.9820   -14.3480    34.8080 ha         1 9DF       0.133000
     59 H23        -10.6050   -16.2050    34.7560 ha         1 9DF       0.126000
     60 H24        -16.4670   -10.1170    35.5360 h1         1 9DF       0.062200
     61 H25        -17.0880   -10.2450    37.1680 h1         1 9DF       0.062200
     62 H26        -14.1290   -10.3650    36.4290 hc         1 9DF       0.064200
     63 H27        -14.7800   -10.4680    38.0600 hc         1 9DF       0.064200
     64 H28        -15.0560    -8.0790    36.1560 hc         1 9DF       0.079700
     65 H29        -15.8310    -8.1690    37.7270 hc         1 9DF       0.079700
     66 H30        -18.9320   -16.4230    31.9890 hc         1 9DF       0.038700
     67 H31        -18.6400   -14.7680    32.5330 hc         1 9DF       0.038700
     68 H32        -18.9350   -15.1020    30.8330 hc         1 9DF       0.038700
     69 H33        -16.5360   -12.4810    37.2660 hn         1 9DF       0.311500
     70 C20        -12.4800   -16.7670    32.9530 c3         1 9DF       0.138300
@<TRIPOS>BOND
     1     1     5 1   
     2     1    10 1   
     3     1    37 1   
     4     1    38 1   
     5     2     6 1   
     6     2     7 2   
     7     2    34 1   
     8     3     6 1   
     9     3     8 1   
    10     3    39 1   
    11     3    40 1   
    12     4     8 1   
    13     4    32 1   
    14     4    36 2   
    15     5     9 1   
    16     5    28 1   
    17     5    41 1   
    18     6    11 1   
    19     8    42 1   
    20     8    43 1   
    21     9    23 1   
    22     9    32 1   
    23     9    44 1   
    24    10    45 1   
    25    10    46 1   
    26    10    47 1   
    27    11    12 1   
    28    11    32 1   
    29    11    48 1   
    30    12    33 1   
    31    12    49 1   
    32    12    50 1   
    33    13    14 ar  
    34    13    22 ar  
    35    13    70 1   
    36    14    15 ar  
    37    14    19 ar  
    38    15    16 ar  
    39    15    53 1   
    40    16    17 ar  
    41    16    54 1   
    42    17    18 ar  
    43    17    55 1   
    44    18    19 ar  
    45    18    56 1   
    46    19    20 ar  
    47    20    21 ar  
    48    20    57 1   
    49    21    22 ar  
    50    21    58 1   
    51    22    59 1   
    52    23    33 1   
    53    23    35 2   
    54    24    25 1   
    55    24    34 1   
    56    24    60 1   
    57    24    61 1   
    58    25    26 1   
    59    25    62 1   
    60    25    63 1   
    61    26    27 1   
    62    26    64 1   
    63    26    65 1   
    64    27    29 1   
    65    27    30 1   
    66    27    31 1   
    67    28    66 1   
    68    28    67 1   
    69    28    68 1   
    70    33    70 1   
    71    34    69 1   
    72    51    70 1   
    73    52    70 1   
@<TRIPOS>SUBSTRUCTURE
     1 9DF         1 TEMP              0 ****  ****    0 ROOT
