@<TRIPOS>MOLECULE
9DF
   70    73     1     0     0
SMALL
No Charge or Current Charge


@<TRIPOS>ATOM
      1 C10        -16.4660   -14.4580    31.0190 c3         1 9DF      -0.080400
      2 C2         -15.6850   -12.6760    35.3340 c          1 9DF       0.660100
      3 C4         -16.3080   -14.8320    36.5650 c6         1 9DF       0.096000
      4 C6         -17.4790   -16.2610    34.8360 c          1 9DF       0.571000
      5 C9         -17.0310   -15.8690    31.3630 c3         1 9DF      -0.056700
      6 N3         -15.7340   -14.0800    35.4250 n          1 9DF      -0.424800
      7 O1         -15.2770   -12.1080    34.3350 o          1 9DF      -0.621100
      8 C5         -17.6390   -15.4450    36.1170 c6         1 9DF      -0.189400
      9 C8         -16.3200   -16.5480    32.5890 c6         1 9DF       0.030700
     10 C11        -16.9320   -13.8870    29.6640 c3         1 9DF      -0.087100
     11 C17        -15.4230   -14.9250    34.2520 c6         1 9DF       0.266100
     12 C18        -14.1300   -15.7480    34.4050 c6         1 9DF       0.077000
     13 C21        -11.4600   -15.5750    32.9970 ca         1 9DF      -0.096300
     14 C22        -11.4880   -14.5000    32.0680 ca         1 9DF      -0.016000
     15 C23        -12.3430   -14.5090    30.9410 ca         1 9DF      -0.100000
     16 C24        -12.3640   -13.4260    30.0470 ca         1 9DF      -0.105000
     17 C25        -11.5270   -12.3200    30.2600 ca         1 9DF      -0.104000
     18 C26        -10.6650   -12.2990    31.3670 ca         1 9DF      -0.100000
     19 C27        -10.6420   -13.3810    32.2690 ca         1 9DF      -0.039000
     20 C28         -9.7720   -13.3400    33.3740 ca         1 9DF      -0.086000
     21 C29         -9.7390   -14.4050    34.2830 ca         1 9DF      -0.115000
     22 C30        -10.5790   -15.5130    34.0970 ca         1 9DF      -0.103000
     23 C31        -14.8280   -16.8940    32.2510 c          1 9DF       0.556000
     24 C35        -16.1050   -10.5180    36.5540 c3         1 9DF       0.112000
     25 C36        -14.6960    -9.9790    36.8740 c3         1 9DF      -0.105400
     26 C37        -14.6600    -8.4360    37.0250 c3         1 9DF      -0.148400
     27 C38        -13.2630    -7.8550    37.3420 c3         1 9DF       0.301000
     28 C46        -18.5710   -15.8450    31.5340 c3         1 9DF      -0.086100
     29 F40        -12.3780    -8.1480    36.3630 f          1 9DF      -0.117667
     30 F41        -13.3240    -6.5090    37.4570 f          1 9DF      -0.117667
     31 F42        -12.7810    -8.3490    38.5060 f          1 9DF      -0.117667
     32 N7         -16.5480   -15.8080    33.8770 n          1 9DF      -0.425800
     33 N19        -13.8110   -16.4980    33.1590 n          1 9DF      -0.401800
     34 N34        -16.1180   -11.9770    36.4340 ns         1 9DF      -0.511900
     35 O32        -14.5540   -17.5110    31.2290 o          1 9DF      -0.564000
     36 O33        -18.1480   -17.2700    34.6620 o          1 9DF      -0.551000
     37 H1         -15.3700   -14.4990    31.0050 hc         1 9DF       0.045700
     38 H2         -16.7430   -13.7500    31.8100 hc         1 9DF       0.045700
     39 H3         -15.6150   -15.6320    36.8630 h1         1 9DF       0.057200
     40 H4         -16.4630   -14.2010    37.4490 h1         1 9DF       0.057200
     41 H5         -16.8430   -16.5030    30.4870 hc         1 9DF       0.071700
     42 H6         -18.3000   -14.6070    35.8630 hc         1 9DF       0.082700
     43 H7         -18.1300   -16.0410    36.8970 hc         1 9DF       0.082700
     44 H8         -16.7660   -17.5470    32.6890 h1         1 9DF       0.107700
     45 H9         -16.4180   -12.9410    29.4560 hc         1 9DF       0.032700
     46 H10        -16.7050   -14.5830    28.8480 hc         1 9DF       0.032700
     47 H11        -18.0100   -13.6880    29.6650 hc         1 9DF       0.032700
     48 H12        -15.2550   -14.2510    33.4000 h2         1 9DF       0.118700
     49 H13        -14.2410   -16.4640    35.2310 h1         1 9DF       0.058700
     50 H14        -13.3130   -15.0640    34.6670 h1         1 9DF       0.058700
     51 H15        -12.2590   -17.2180    31.8720 h1         1 9DF       0.067200
     52 H16        -12.0520   -17.5690    33.5780 h1         1 9DF       0.067200
     53 H17        -12.9950   -15.3520    30.7370 ha         1 9DF       0.131000
     54 H18        -13.0280   -13.4450    29.1860 ha         1 9DF       0.116000
     55 H19        -11.5430   -11.4830    29.5660 ha         1 9DF       0.114000
     56 H20        -10.0170   -11.4400    31.5250 ha         1 9DF       0.112000
     57 H21         -9.1210   -12.4820    33.5280 ha         1 9DF       0.115000
     58 H22         -9.0670   -14.3700    35.1380 ha         1 9DF       0.115000
     59 H23        -10.5500   -16.3260    34.8190 ha         1 9DF       0.108000
     60 H24        -16.4680   -10.0760    35.6160 h1         1 9DF       0.062200
     61 H25        -16.7990   -10.2270    37.3540 h1         1 9DF       0.062200
     62 H26        -14.0060   -10.2820    36.0770 hc         1 9DF       0.064200
     63 H27        -14.3390   -10.4460    37.8010 hc         1 9DF       0.064200
     64 H28        -15.0270    -7.9750    36.1000 hc         1 9DF       0.079700
     65 H29        -15.3520    -8.1350    37.8210 hc         1 9DF       0.079700
     66 H30        -18.9450   -16.8410    31.8010 hc         1 9DF       0.038700
     67 H31        -18.8680   -15.1450    32.3240 hc         1 9DF       0.038700
     68 H32        -19.0700   -15.5460    30.6050 hc         1 9DF       0.038700
     69 H33        -16.4460   -12.5210    37.2190 hn         1 9DF       0.311500
     70 C20        -12.3810   -16.7920    32.8750 c3         1 9DF       0.138300
@<TRIPOS>BOND
     1     1     5 1   
     2     1    10 1   
     3     1    37 1   
     4     1    38 1   
     5     2     6 1   
     6     2     7 2   
     7     2    34 1   
     8     3     6 1   
     9     3     8 1   
    10     3    39 1   
    11     3    40 1   
    12     4     8 1   
    13     4    32 1   
    14     4    36 2   
    15     5     9 1   
    16     5    28 1   
    17     5    41 1   
    18     6    11 1   
    19     8    42 1   
    20     8    43 1   
    21     9    23 1   
    22     9    32 1   
    23     9    44 1   
    24    10    45 1   
    25    10    46 1   
    26    10    47 1   
    27    11    12 1   
    28    11    32 1   
    29    11    48 1   
    30    12    33 1   
    31    12    49 1   
    32    12    50 1   
    33    13    14 ar  
    34    13    22 ar  
    35    13    70 1   
    36    14    15 ar  
    37    14    19 ar  
    38    15    16 ar  
    39    15    53 1   
    40    16    17 ar  
    41    16    54 1   
    42    17    18 ar  
    43    17    55 1   
    44    18    19 ar  
    45    18    56 1   
    46    19    20 ar  
    47    20    21 ar  
    48    20    57 1   
    49    21    22 ar  
    50    21    58 1   
    51    22    59 1   
    52    23    33 1   
    53    23    35 2   
    54    24    25 1   
    55    24    34 1   
    56    24    60 1   
    57    24    61 1   
    58    25    26 1   
    59    25    62 1   
    60    25    63 1   
    61    26    27 1   
    62    26    64 1   
    63    26    65 1   
    64    27    29 1   
    65    27    30 1   
    66    27    31 1   
    67    28    66 1   
    68    28    67 1   
    69    28    68 1   
    70    33    70 1   
    71    34    69 1   
    72    51    70 1   
    73    52    70 1   
@<TRIPOS>SUBSTRUCTURE
     1 9DF         1 TEMP              0 ****  ****    0 ROOT
