@<TRIPOS>MOLECULE
9DG
   17    18     1     0     0
SMALL
bcc


@<TRIPOS>ATOM
      1 C9           1.6810     0.0360    -1.7280 cc         1 9DG      -0.205000
      2 C8           0.7220     0.0110    -2.7170 cd         1 9DG      -0.110300
      3 N7          -0.5080    -0.0090    -2.1600 na         1 9DG      -0.127100
      4 C5          -0.3730     0.0030    -0.8010 cd         1 9DG      -0.273900
      5 C6          -1.3670    -0.0110     0.2120 c          1 9DG       0.757100
      6 O6          -2.5830    -0.0340     0.0810 o          1 9DG      -0.636500
      7 N1          -0.7740     0.0110     1.4700 ns         1 9DG      -0.511400
      8 C2           0.5750     0.0330     1.7140 cd         1 9DG       0.683800
      9 N2           0.9390     0.1020     3.0180 nv         1 9DG      -0.918800
     10 N3           1.4730     0.0400     0.7770 nc         1 9DG      -0.659100
     11 C4           0.9850     0.0300    -0.4950 cc         1 9DG       0.176400
     12 H9           2.7490     0.0540    -1.8750 ha         1 9DG       0.166000
     13 H8           0.8410     0.0070    -3.7880 h4         1 9DG       0.166000
     14 HN7         -1.3780    -0.0290    -2.6660 hn         1 9DG       0.312700
     15 HN1         -1.4100     0.0240     2.2570 hn         1 9DG       0.323500
     16 HN21         1.9120    -0.0800     3.2040 hn         1 9DG       0.427800
     17 HN22         0.3110    -0.2580     3.7180 hn         1 9DG       0.427800
@<TRIPOS>BOND
     1     1     2 2   
     2     1    11 1   
     3     1    12 1   
     4     2     3 1   
     5     2    13 1   
     6     3     4 1   
     7     3    14 1   
     8     4     5 1   
     9     4    11 2   
    10     5     6 2   
    11     5     7 1   
    12     7     8 1   
    13     7    15 1   
    14     8     9 1   
    15     8    10 2   
    16     9    16 1   
    17     9    17 1   
    18    10    11 1   
@<TRIPOS>SUBSTRUCTURE
     1 9DG         1 TEMP              0 ****  ****    0 ROOT
