@<TRIPOS>MOLECULE
9DG
   17    18     1     0     0
SMALL
No Charge or Current Charge


@<TRIPOS>ATOM
      1 C9           1.6650     0.0380    -1.7010 cc         1 9DG      -0.187000
      2 C8           0.7760     0.0000    -2.7460 cd         1 9DG      -0.143000
      3 N7          -0.5080    -0.0210    -2.1710 na         1 9DG      -0.076000
      4 C5          -0.3830     0.0040    -0.7720 cd         1 9DG      -0.324600
      5 C6          -1.3930    -0.0000     0.2900 c          1 9DG       0.614600
      6 O6          -2.6000    -0.0270     0.1140 o          1 9DG      -0.561000
      7 N1          -0.8160     0.0310     1.5170 ns         1 9DG      -0.444400
      8 C2           0.5210     0.0650     1.7020 cd         1 9DG       0.683800
      9 N2           0.9540     0.0890     2.9560 nv         1 9DG      -1.029200
     10 N3           1.4550     0.0730     0.7770 nc         1 9DG      -0.659100
     11 C4           0.9470     0.0400    -0.4980 cc         1 9DG       0.176400
     12 H9           2.7470     0.0620    -1.7720 ha         1 9DG       0.148000
     13 H8           0.9440    -0.0130    -3.8180 h4         1 9DG       0.148000
     14 HN7         -1.3850    -0.0490    -2.6870 hn         1 9DG       0.363000
     15 HN1         -1.4390     0.0480     2.3060 hn         1 9DG       0.323500
     16 HN21         1.9470    -0.0820     3.0560 hn         1 9DG       0.483000
     17 HN22         0.3640    -0.3270     3.6670 hn         1 9DG       0.483000
@<TRIPOS>BOND
     1     1     2 2   
     2     1    11 1   
     3     1    12 1   
     4     2     3 1   
     5     2    13 1   
     6     3     4 1   
     7     3    14 1   
     8     4     5 1   
     9     4    11 2   
    10     5     6 2   
    11     5     7 1   
    12     7     8 1   
    13     7    15 1   
    14     8     9 1   
    15     8    10 2   
    16     9    16 1   
    17     9    17 1   
    18    10    11 1   
@<TRIPOS>SUBSTRUCTURE
     1 9DG         1 TEMP              0 ****  ****    0 ROOT
