@<TRIPOS>MOLECULE
9DH
   39    40     1     0     0
SMALL
abcg2


@<TRIPOS>ATOM
      1 CAH         -1.7420    -0.7220     1.5850 ca         1 9DH      -0.180000
      2 CAI         -3.0610    -0.3520     1.4160 ca         1 9DH       0.023000
      3 CAJ         -3.4950     0.0660     0.1660 ca         1 9DH      -0.311500
      4 SAM         -5.1770     0.5300    -0.0850 sy         1 9DH       1.132600
      5 OAN         -5.6420     0.0170    -1.3660 o          1 9DH      -0.547000
      6 OAO         -5.9250     0.1710     1.1130 o          1 9DH      -0.547000
      7 NAP         -5.0320     2.1640    -0.2870 n8         1 9DH      -1.001100
      8 CAK         -2.6140     0.1090    -0.9060 ca         1 9DH       0.023000
      9 CAL         -1.2920    -0.2590    -0.7410 ca         1 9DH      -0.180000
     10 CAG         -0.8420    -0.6810     0.5160 ca         1 9DH       0.040000
     11 NAF          0.4640    -1.0750     0.7820 ns         1 9DH      -0.151000
     12 C            1.5380    -1.1320    -0.0520 c          1 9DH       0.571100
     13 O            1.5340    -0.7790    -1.2120 o          1 9DH      -0.548100
     14 CA           2.7790    -1.7320     0.6060 c3         1 9DH       0.146800
     15 N            3.9860    -1.4390    -0.1000 nh         1 9DH      -0.805400
     16 CAA          4.4030    -2.3520    -1.1400 c3         1 9DH       0.213100
     17 CAQ          4.4880    -0.1560    -0.0820 ca         1 9DH       0.328000
     18 CAR          3.9690     0.8330     0.7730 ca         1 9DH      -0.177500
     19 CAS          4.5150     2.1070     0.8040 ca         1 9DH      -0.069000
     20 CAT          5.5840     2.4540    -0.0100 ca         1 9DH      -0.154000
     21 CAU          6.0960     1.4890    -0.8670 ca         1 9DH      -0.069000
     22 CAV          5.5630     0.2100    -0.9110 ca         1 9DH      -0.177500
     23 H1          -1.4050    -1.0470     2.5610 ha         1 9DH       0.134500
     24 H2          -3.7380    -0.3920     2.2580 ha         1 9DH       0.138000
     25 H3          -5.8700     2.5610    -0.7010 hn         1 9DH       0.471000
     26 H4          -4.8100     2.6470     0.5780 hn         1 9DH       0.471000
     27 H5          -2.9470     0.4310    -1.8840 ha         1 9DH       0.138000
     28 H6          -0.6270    -0.2170    -1.5860 ha         1 9DH       0.134500
     29 H7           0.6300    -1.3720     1.7330 hn         1 9DH       0.151000
     30 H8           2.8460    -1.4290     1.6550 h1         1 9DH       0.068700
     31 H9           2.6380    -2.8150     0.6330 h1         1 9DH       0.068700
     32 H10          4.1820    -1.9800    -2.1440 h1         1 9DH       0.040700
     33 H11          5.4730    -2.5600    -1.0830 h1         1 9DH       0.040700
     34 H12          3.8850    -3.2990    -1.0130 h1         1 9DH       0.040700
     35 H13          3.1320     0.6320     1.4270 ha         1 9DH       0.106500
     36 H14          4.0860     2.8370     1.4780 ha         1 9DH       0.108000
     37 H15          6.0020     3.4510     0.0170 ha         1 9DH       0.114000
     38 H16          6.9260     1.7280    -1.5200 ha         1 9DH       0.108000
     39 H17          5.9960    -0.5000    -1.6010 ha         1 9DH       0.106500
@<TRIPOS>BOND
     1     1     2 ar  
     2     1    10 ar  
     3     1    23 1   
     4     2     3 ar  
     5     2    24 1   
     6     3     4 1   
     7     3     8 ar  
     8     4     5 2   
     9     4     6 2   
    10     4     7 1   
    11     7    25 1   
    12     7    26 1   
    13     8     9 ar  
    14     8    27 1   
    15     9    10 ar  
    16     9    28 1   
    17    10    11 1   
    18    11    12 1   
    19    11    29 1   
    20    12    13 2   
    21    12    14 1   
    22    14    15 1   
    23    14    30 1   
    24    14    31 1   
    25    15    16 1   
    26    15    17 1   
    27    16    32 1   
    28    16    33 1   
    29    16    34 1   
    30    17    18 ar  
    31    17    22 ar  
    32    18    19 ar  
    33    18    35 1   
    34    19    20 ar  
    35    19    36 1   
    36    20    21 ar  
    37    20    37 1   
    38    21    22 ar  
    39    21    38 1   
    40    22    39 1   
@<TRIPOS>SUBSTRUCTURE
     1 9DH         1 TEMP              0 ****  ****    0 ROOT
