@<TRIPOS>MOLECULE
9DH
   39    40     1     0     0
SMALL
No Charge or Current Charge


@<TRIPOS>ATOM
      1 CAH         -0.6210     0.4620     0.7770 ca         1 9DH      -0.180000
      2 CAI         -1.8630     1.1130     0.7010 ca         1 9DH       0.023000
      3 CAJ         -2.8870     0.5760    -0.1040 ca         1 9DH      -0.311500
      4 SAM         -4.4770     1.3930    -0.2100 sy         1 9DH       1.132600
      5 OAN         -5.5250     0.4370    -0.5700 o          1 9DH      -0.547000
      6 OAO         -4.6190     2.3580     0.8770 o          1 9DH      -0.547000
      7 NAP         -4.2750     2.3260    -1.5360 n8         1 9DH      -1.001100
      8 CAK         -2.6580    -0.6120    -0.8240 ca         1 9DH       0.023000
      9 CAL         -1.4110    -1.2560    -0.7430 ca         1 9DH      -0.180000
     10 CAG         -0.3790    -0.7210     0.0560 ca         1 9DH       0.040000
     11 NAF          0.9000    -1.3190     0.1890 ns         1 9DH      -0.151000
     12 C            1.5300    -2.3490    -0.4970 c          1 9DH       0.571100
     13 O            1.0300    -2.9530    -1.4420 o          1 9DH      -0.548100
     14 CA           2.9590    -2.6690     0.0260 c3         1 9DH       0.146800
     15 N            4.0130    -1.6180    -0.1930 nh         1 9DH      -0.805400
     16 CAA          5.0370    -1.8930    -1.2280 c3         1 9DH       0.213100
     17 CAQ          3.8830    -0.3280     0.3740 ca         1 9DH       0.328000
     18 CAR          3.5290    -0.1800     1.7290 ca         1 9DH      -0.177500
     19 CAS          3.3640     1.0970     2.2910 ca         1 9DH      -0.069000
     20 CAT          3.5510     2.2400     1.4980 ca         1 9DH      -0.154000
     21 CAU          3.9060     2.1060     0.1460 ca         1 9DH      -0.069000
     22 CAV          4.0710     0.8260    -0.4120 ca         1 9DH      -0.177500
     23 H1           0.1630     0.8870     1.4010 ha         1 9DH       0.134500
     24 H2          -2.0220     2.0290     1.2700 ha         1 9DH       0.138000
     25 H3          -4.5350     3.2380    -1.1690 hn         1 9DH       0.471000
     26 H4          -3.2630     2.3720    -1.6130 hn         1 9DH       0.471000
     27 H5          -3.4420    -1.0420    -1.4480 ha         1 9DH       0.138000
     28 H6          -1.2730    -2.1760    -1.3020 ha         1 9DH       0.134500
     29 H7           1.4690    -0.9010     0.9140 hn         1 9DH       0.151000
     30 H8           2.8690    -2.8900     1.0980 h1         1 9DH       0.068700
     31 H9           3.2630    -3.6100    -0.4530 h1         1 9DH       0.068700
     32 H10          4.6240    -1.7280    -2.2330 h1         1 9DH       0.040700
     33 H11          5.9090    -1.2390    -1.0940 h1         1 9DH       0.040700
     34 H12          5.3890    -2.9310    -1.1590 h1         1 9DH       0.040700
     35 H13          3.3920    -1.0560     2.3550 ha         1 9DH       0.106500
     36 H14          3.0930     1.2010     3.3400 ha         1 9DH       0.108000
     37 H15          3.4230     3.2300     1.9310 ha         1 9DH       0.114000
     38 H16          4.0490     2.9910    -0.4700 ha         1 9DH       0.108000
     39 H17          4.3290     0.7360    -1.4620 ha         1 9DH       0.106500
@<TRIPOS>BOND
     1     1     2 ar  
     2     1    10 ar  
     3     1    23 1   
     4     2     3 ar  
     5     2    24 1   
     6     3     4 1   
     7     3     8 ar  
     8     4     5 2   
     9     4     6 2   
    10     4     7 1   
    11     7    25 1   
    12     7    26 1   
    13     8     9 ar  
    14     8    27 1   
    15     9    10 ar  
    16     9    28 1   
    17    10    11 1   
    18    11    12 1   
    19    11    29 1   
    20    12    13 2   
    21    12    14 1   
    22    14    15 1   
    23    14    30 1   
    24    14    31 1   
    25    15    16 1   
    26    15    17 1   
    27    16    32 1   
    28    16    33 1   
    29    16    34 1   
    30    17    18 ar  
    31    17    22 ar  
    32    18    19 ar  
    33    18    35 1   
    34    19    20 ar  
    35    19    36 1   
    36    20    21 ar  
    37    20    37 1   
    38    21    22 ar  
    39    21    38 1   
    40    22    39 1   
@<TRIPOS>SUBSTRUCTURE
     1 9DH         1 TEMP              0 ****  ****    0 ROOT
