@<TRIPOS>MOLECULE
9DI
   32    34     1     0     0
SMALL
bcc


@<TRIPOS>ATOM
      1 C9           0.3110     0.4310    -0.2350 cc         1 9DI      -0.170300
      2 C4          -0.1810     0.2840    -1.5560 cc         1 9DI       0.128400
      3 N3          -1.4150     0.5890    -2.0580 nc         1 9DI      -0.577100
      4 C2          -1.5580     0.3420    -3.3120 cd         1 9DI       0.473800
      5 N1          -0.5940    -0.1800    -4.1180 ns         1 9DI      -0.491400
      6 C6           0.6900    -0.5240    -3.7160 c          1 9DI       0.741100
      7 O6           1.5150    -0.9860    -4.4900 o          1 9DI      -0.628500
      8 C5           0.8470    -0.2500    -2.3260 cd         1 9DI      -0.239900
      9 N7           1.9270    -0.4230    -1.5210 na         1 9DI      -0.124100
     10 C8           1.6140    -0.0140    -0.2680 cd         1 9DI      -0.089300
     11 C11          1.3910    -0.3330     3.6520 c3         1 9DI       0.138400
     12 O5           2.1420     0.6920     4.2580 oh         1 9DI      -0.576800
     13 C7           0.1240     0.2510     3.0790 c5         1 9DI       0.109100
     14 O4           0.4270     1.1710     2.0400 os         1 9DI      -0.389600
     15 C1          -0.4440     0.9840     0.9320 c5         1 9DI       0.220400
     16 C10         -1.5480     0.0460     1.4160 c5         1 9DI       0.135100
     17 O2          -2.5470     0.8200     2.0330 oh         1 9DI      -0.586800
     18 C3          -0.7860    -0.7980     2.4330 c5         1 9DI       0.071100
     19 O3          -1.6670    -1.4300     3.3200 oh         1 9DI      -0.590800
     20 H2          -2.5000     0.5490    -3.8040 h5         1 9DI       0.048800
     21 HN1         -0.8260    -0.3300    -5.0910 hn         1 9DI       0.330500
     22 HN7          2.8200    -0.7920    -1.8060 hn         1 9DI       0.316700
     23 H8           2.3470    -0.0590     0.5200 h4         1 9DI       0.179000
     24 H5'1         1.9520    -0.8330     2.8500 h1         1 9DI       0.013700
     25 H5'2         1.1100    -1.1100     4.3760 h1         1 9DI       0.013700
     26 HO5          2.9410     0.3030     4.6240 ho         1 9DI       0.401000
     27 H1          -0.8820     1.9500     0.6510 h1         1 9DI       0.105700
     28 H6          -1.9560    -0.5570     0.5970 h1         1 9DI       0.070700
     29 HO2         -3.1220     0.2310     2.5340 ho         1 9DI       0.423000
     30 H3          -0.1740    -1.5320     1.8900 h1         1 9DI       0.045700
     31 HO3         -1.2210    -2.1710     3.7380 ho         1 9DI       0.414000
     32 H4          -0.4310     0.7610     3.8790 h1         1 9DI       0.083700
@<TRIPOS>BOND
     1     1     2 1   
     2     1    10 2   
     3     1    15 1   
     4     2     3 1   
     5     2     8 2   
     6     3     4 2   
     7     4     5 1   
     8     4    20 1   
     9     5     6 1   
    10     5    21 1   
    11     6     7 2   
    12     6     8 1   
    13     8     9 1   
    14     9    10 1   
    15     9    22 1   
    16    10    23 1   
    17    11    12 1   
    18    11    13 1   
    19    11    24 1   
    20    11    25 1   
    21    12    26 1   
    22    13    14 1   
    23    13    18 1   
    24    13    32 1   
    25    14    15 1   
    26    15    16 1   
    27    15    27 1   
    28    16    17 1   
    29    16    18 1   
    30    16    28 1   
    31    17    29 1   
    32    18    19 1   
    33    18    30 1   
    34    19    31 1   
@<TRIPOS>SUBSTRUCTURE
     1 9DI         1 TEMP              0 ****  ****    0 ROOT
