@<TRIPOS>MOLECULE
9DI
   32    34     1     0     0
SMALL
No Charge or Current Charge


@<TRIPOS>ATOM
      1 C9           0.4460     0.2440    -0.3620 cc         1 9DI      -0.170300
      2 C4          -0.1120     0.2790    -1.6500 cc         1 9DI       0.128400
      3 N3          -1.3240     0.8020    -2.0350 nc         1 9DI      -0.577100
      4 C2          -1.5860     0.6870    -3.3410 cd         1 9DI       0.473800
      5 N1          -0.7380     0.1010    -4.2520 ns         1 9DI      -0.424400
      6 C6           0.4720    -0.4350    -3.9420 c          1 9DI       0.598600
      7 O6           1.2110    -0.9510    -4.7650 o          1 9DI      -0.553000
      8 C5           0.7580    -0.3090    -2.5120 cd         1 9DI      -0.290600
      9 N7           1.8740    -0.7150    -1.7560 na         1 9DI      -0.073000
     10 C8           1.6740    -0.3650    -0.4080 cd         1 9DI      -0.122000
     11 C11          1.2790    -0.0740     4.0350 c3         1 9DI       0.161600
     12 O5           1.8120     1.0810     4.7080 oh         1 9DI      -0.699000
     13 C7           0.1140     0.3100     3.0800 c5         1 9DI       0.132300
     14 O4           0.6140     1.0240     1.9230 os         1 9DI      -0.436000
     15 C1          -0.3090     0.8310     0.8150 c5         1 9DI       0.243600
     16 C10         -1.4180    -0.1620     1.3240 c5         1 9DI       0.158300
     17 O2          -2.5670     0.4870     1.8910 oh         1 9DI      -0.709000
     18 C3          -0.6470    -0.8990     2.4550 c5         1 9DI       0.094300
     19 O3          -1.5590    -1.5470     3.3640 oh         1 9DI      -0.713000
     20 H2          -2.5030     1.0540    -3.7850 h5         1 9DI       0.048800
     21 HN1         -1.0050     0.0510    -5.2240 hn         1 9DI       0.330500
     22 HN7          2.6970    -1.1860    -2.1250 hn         1 9DI       0.367000
     23 H8           2.3960    -0.5690     0.3760 h4         1 9DI       0.161000
     24 H5'1         2.0640    -0.5780     3.4560 h1         1 9DI       0.013700
     25 H5'2         0.9020    -0.7900     4.7770 h1         1 9DI       0.013700
     26 HO5          2.5790     0.7720     5.2430 ho         1 9DI       0.500000
     27 H1          -0.7470     1.7990     0.5370 h1         1 9DI       0.105700
     28 H6          -1.7250    -0.8590     0.5310 h1         1 9DI       0.070700
     29 HO2         -2.7670    -0.0860     2.6740 ho         1 9DI       0.522000
     30 H3           0.0590    -1.6260     2.0270 h1         1 9DI       0.045700
     31 HO3         -1.0570    -2.2530     3.8380 ho         1 9DI       0.513000
     32 H4          -0.5820     0.9650     3.6230 h1         1 9DI       0.083700
@<TRIPOS>BOND
     1     1     2 1   
     2     1    10 2   
     3     1    15 1   
     4     2     3 1   
     5     2     8 2   
     6     3     4 2   
     7     4     5 1   
     8     4    20 1   
     9     5     6 1   
    10     5    21 1   
    11     6     7 2   
    12     6     8 1   
    13     8     9 1   
    14     9    10 1   
    15     9    22 1   
    16    10    23 1   
    17    11    12 1   
    18    11    13 1   
    19    11    24 1   
    20    11    25 1   
    21    12    26 1   
    22    13    14 1   
    23    13    18 1   
    24    13    32 1   
    25    14    15 1   
    26    15    16 1   
    27    15    27 1   
    28    16    17 1   
    29    16    18 1   
    30    16    28 1   
    31    17    29 1   
    32    18    19 1   
    33    18    30 1   
    34    19    31 1   
@<TRIPOS>SUBSTRUCTURE
     1 9DI         1 TEMP              0 ****  ****    0 ROOT
