@<TRIPOS>MOLECULE
9DJ
   53    56     1     0     0
SMALL
bcc


@<TRIPOS>ATOM
      1 C5          -6.5850     2.0790     0.7800 ca         1 9DJ       0.285200
      2 C6          -6.7670     0.8500     0.1660 ca         1 9DJ      -0.172300
      3 C7          -5.9240    -1.2650    -0.8950 c          1 9DJ       0.935200
      4 C13         -1.1440    -1.9550     0.4690 c6         1 9DJ      -0.075400
      5 C15          1.2540    -2.1530     1.0760 c6         1 9DJ      -0.033100
      6 C17          0.4990    -0.1890    -0.3340 ca         1 9DJ      -0.088300
      7 C20          2.1250     1.5100    -0.9750 ca         1 9DJ      -0.196000
      8 C21          0.8460     0.9800    -1.0060 ca         1 9DJ      -0.097000
      9 C24          5.5350     0.5660     0.0180 ca         1 9DJ       0.160600
     10 C26          7.6480     0.1250     1.1010 ca         1 9DJ      -0.118000
     11 C28          6.8190    -1.3960    -0.5570 ca         1 9DJ      -0.118000
     12 O9          -4.9140    -1.9050    -1.2790 o          1 9DJ      -0.828300
     13 O8          -7.1040    -1.6220    -1.0340 o          1 9DJ      -0.828300
     14 C1          -5.6820     0.0700    -0.2060 ca         1 9DJ      -0.201600
     15 N4          -5.3750     2.5660     1.0340 nb         1 9DJ      -0.664000
     16 C3          -4.3210     1.8450     0.6940 ca         1 9DJ       0.259200
     17 C2          -4.3890     0.5780     0.0760 ca         1 9DJ       0.119300
     18 N10         -3.2710    -0.1200    -0.2240 nu         1 9DJ      -0.801600
     19 C11         -1.9310     0.3710    -0.0570 c3         1 9DJ       0.248800
     20 C12         -0.9190    -0.7230    -0.4130 c6         1 9DJ      -0.022400
     21 C19          3.1360     0.8690    -0.2520 ca         1 9DJ       0.166600
     22 C18          2.7980    -0.3170     0.4080 ca         1 9DJ      -0.185000
     23 C16          1.5160    -0.8500     0.3670 ca         1 9DJ      -0.037300
     24 C14          0.0600    -2.8810     0.4810 c6         1 9DJ      -0.073400
     25 N22          4.4140     1.4030    -0.1600 nh         1 9DJ      -0.581400
     26 C23          4.6560     2.7430    -0.6540 c3         1 9DJ       0.221100
     27 C29          5.6990    -0.5970    -0.7350 ca         1 9DJ      -0.150000
     28 C27          7.8020    -1.0380     0.3570 ca         1 9DJ      -0.149000
     29 C25          6.5190     0.9160     0.9410 ca         1 9DJ      -0.150000
     30 H1          -7.4340     2.6880     1.0690 h4         1 9DJ      -0.010900
     31 H2          -7.7680     0.4910    -0.0300 ha         1 9DJ       0.147000
     32 H3          -1.3510    -1.6320     1.4960 hc         1 9DJ       0.061700
     33 H4          -2.0330    -2.4900     0.1330 hc         1 9DJ       0.061700
     34 H5           2.1500    -2.7760     1.0380 hc         1 9DJ       0.042200
     35 H6           1.0630    -1.9630     2.1390 hc         1 9DJ       0.042200
     36 H7           2.3240     2.4160    -1.5320 ha         1 9DJ       0.125000
     37 H8           0.1020     1.5020    -1.5980 ha         1 9DJ       0.133000
     38 H9           8.4030     0.4130     1.8210 ha         1 9DJ       0.127500
     39 H10          6.9290    -2.2960    -1.1490 ha         1 9DJ       0.127500
     40 H12         -3.3540     2.2850     0.9130 h4         1 9DJ      -0.011900
     41 H13         -3.4590    -0.9620    -0.7630 hn         1 9DJ       0.497800
     42 H14         -1.7630     1.2640    -0.6710 h1         1 9DJ       0.022200
     43 H15         -1.7560     0.6750     0.9830 h1         1 9DJ       0.022200
     44 H16         -1.1020    -1.0130    -1.4560 hc         1 9DJ       0.064700
     45 H17          3.5540    -0.8490     0.9740 ha         1 9DJ       0.130000
     46 H18         -0.1620    -3.7790     1.0620 hc         1 9DJ       0.039700
     47 H19          0.2920    -3.2130    -0.5360 hc         1 9DJ       0.039700
     48 H20          4.6090     2.8070    -1.7470 h1         1 9DJ       0.034033
     49 H21          3.9310     3.4440    -0.2400 h1         1 9DJ       0.034033
     50 H22          5.6450     3.0720    -0.3460 h1         1 9DJ       0.034033
     51 H23          4.9470    -0.8790    -1.4620 ha         1 9DJ       0.140500
     52 H24          8.6780    -1.6590     0.4880 ha         1 9DJ       0.126000
     53 H25          6.3980     1.8090     1.5410 ha         1 9DJ       0.140500
@<TRIPOS>BOND
     1     1     2 ar  
     2     1    15 ar  
     3     1    30 1   
     4     2    14 ar  
     5     2    31 1   
     6     3    12 1   
     7     3    13 1   
     8     3    14 1   
     9     4    20 1   
    10     4    24 1   
    11     4    32 1   
    12     4    33 1   
    13     5    23 1   
    14     5    24 1   
    15     5    34 1   
    16     5    35 1   
    17     6     8 ar  
    18     6    20 1   
    19     6    23 ar  
    20     7     8 ar  
    21     7    21 ar  
    22     7    36 1   
    23     8    37 1   
    24     9    25 1   
    25     9    27 ar  
    26     9    29 ar  
    27    10    28 ar  
    28    10    29 ar  
    29    10    38 1   
    30    11    27 ar  
    31    11    28 ar  
    32    11    39 1   
    33    14    17 ar  
    34    15    16 ar  
    35    16    17 ar  
    36    16    40 1   
    37    17    18 1   
    38    18    19 1   
    39    18    41 1   
    40    19    20 1   
    41    19    42 1   
    42    19    43 1   
    43    20    44 1   
    44    21    22 ar  
    45    21    25 1   
    46    22    23 ar  
    47    22    45 1   
    48    24    46 1   
    49    24    47 1   
    50    25    26 1   
    51    26    48 1   
    52    26    49 1   
    53    26    50 1   
    54    27    51 1   
    55    28    52 1   
    56    29    53 1   
@<TRIPOS>SUBSTRUCTURE
     1 9DJ         1 TEMP              0 ****  ****    0 ROOT
