@<TRIPOS>MOLECULE
9DJ
   53    56     1     0     0
SMALL
No Charge or Current Charge


@<TRIPOS>ATOM
      1 C5          -6.8370     2.1290     0.3840 ca         1 9DJ       0.219900
      2 C6          -6.9060     0.9180    -0.3280 ca         1 9DJ      -0.089000
      3 C7          -5.8460    -1.2020    -1.2410 c          1 9DJ       0.724600
      4 C13         -1.0970    -1.9390     0.8730 c6         1 9DJ      -0.075400
      5 C15          1.3770    -2.1720     1.2660 c6         1 9DJ      -0.033100
      6 C17          0.5250    -0.1900    -0.1430 ca         1 9DJ      -0.088300
      7 C20          2.1150     1.5180    -0.8930 ca         1 9DJ      -0.178000
      8 C21          0.8140     0.9890    -0.8640 ca         1 9DJ      -0.079000
      9 C24          5.6260     0.5610    -0.1690 ca         1 9DJ       0.299000
     10 C26          7.8160     0.0050     0.7710 ca         1 9DJ      -0.100000
     11 C28          6.8260    -1.4360    -0.9180 ca         1 9DJ      -0.100000
     12 O9          -4.8220    -1.7610    -1.6100 o          1 9DJ      -0.723000
     13 O8          -6.9590    -1.6510    -1.4710 o          1 9DJ      -0.723000
     14 C1          -5.7520     0.1060    -0.4790 ca         1 9DJ      -0.201600
     15 N4          -5.7030     2.5840     0.9560 nb         1 9DJ      -0.664000
     16 C3          -4.5930     1.8150     0.8190 ca         1 9DJ       0.193900
     17 C2          -4.5540     0.5750     0.1150 ca         1 9DJ       0.323000
     18 N10         -3.3720    -0.1710     0.0130 nu         1 9DJ      -0.995200
     19 C11         -1.9990     0.3440     0.1220 c3         1 9DJ       0.248800
     20 C12         -0.9190    -0.7620    -0.1310 c6         1 9DJ      -0.022400
     21 C19          3.1710     0.8760    -0.2180 ca         1 9DJ       0.305000
     22 C18          2.8890    -0.3130     0.4800 ca         1 9DJ      -0.167000
     23 C16          1.5910    -0.8570     0.5120 ca         1 9DJ      -0.037300
     24 C14          0.0960    -2.9070     0.8300 c6         1 9DJ      -0.073400
     25 N22          4.4890     1.4060    -0.2380 nh         1 9DJ      -0.858200
     26 C23          4.6880     2.8710    -0.3850 c3         1 9DJ       0.221100
     27 C29          5.7050    -0.5900    -0.9790 ca         1 9DJ      -0.132000
     28 C27          7.8820    -1.1380    -0.0420 ca         1 9DJ      -0.131000
     29 C25          6.6930     0.8490     0.7070 ca         1 9DJ      -0.132000
     30 H1          -7.7210     2.7550     0.5010 h4         1 9DJ      -0.010900
     31 H2          -7.8590     0.6210    -0.7590 ha         1 9DJ       0.129000
     32 H3          -1.2090    -1.5460     1.8940 hc         1 9DJ       0.061700
     33 H4          -2.0220    -2.4900     0.6520 hc         1 9DJ       0.061700
     34 H5           2.2400    -2.8350     1.1200 hc         1 9DJ       0.042200
     35 H6           1.3300    -1.9620     2.3430 hc         1 9DJ       0.042200
     36 H7           2.2950     2.4240    -1.4630 ha         1 9DJ       0.107000
     37 H8           0.0380     1.5040    -1.4230 ha         1 9DJ       0.115000
     38 H9           8.6320     0.2350     1.4540 ha         1 9DJ       0.109500
     39 H10          6.8750    -2.3210    -1.5500 ha         1 9DJ       0.109500
     40 H12         -3.6970     2.2120     1.2960 h4         1 9DJ      -0.011900
     41 H13         -3.5080    -0.9880    -0.6040 hn         1 9DJ       0.553000
     42 H14         -1.8800     1.1510    -0.6090 h1         1 9DJ       0.022200
     43 H15         -1.8370     0.7700     1.1210 h1         1 9DJ       0.022200
     44 H16         -1.1140    -1.1500    -1.1410 hc         1 9DJ       0.064700
     45 H17          3.6860    -0.8240     1.0100 ha         1 9DJ       0.112000
     46 H18         -0.0860    -3.7650     1.4910 hc         1 9DJ       0.039700
     47 H19          0.2190    -3.3080    -0.1860 hc         1 9DJ       0.039700
     48 H20          4.4840     3.1870    -1.4170 h1         1 9DJ       0.034033
     49 H21          4.0250     3.4190     0.2970 h1         1 9DJ       0.034033
     50 H22          5.7190     3.1640    -0.1470 h1         1 9DJ       0.034033
     51 H23          4.8940    -0.8240    -1.6630 ha         1 9DJ       0.122500
     52 H24          8.7500    -1.7920     0.0070 ha         1 9DJ       0.108000
     53 H25          6.6460     1.7210     1.3530 ha         1 9DJ       0.122500
@<TRIPOS>BOND
     1     1     2 ar  
     2     1    15 ar  
     3     1    30 1   
     4     2    14 ar  
     5     2    31 1   
     6     3    12 1   
     7     3    13 1   
     8     3    14 1   
     9     4    20 1   
    10     4    24 1   
    11     4    32 1   
    12     4    33 1   
    13     5    23 1   
    14     5    24 1   
    15     5    34 1   
    16     5    35 1   
    17     6     8 ar  
    18     6    20 1   
    19     6    23 ar  
    20     7     8 ar  
    21     7    21 ar  
    22     7    36 1   
    23     8    37 1   
    24     9    25 1   
    25     9    27 ar  
    26     9    29 ar  
    27    10    28 ar  
    28    10    29 ar  
    29    10    38 1   
    30    11    27 ar  
    31    11    28 ar  
    32    11    39 1   
    33    14    17 ar  
    34    15    16 ar  
    35    16    17 ar  
    36    16    40 1   
    37    17    18 1   
    38    18    19 1   
    39    18    41 1   
    40    19    20 1   
    41    19    42 1   
    42    19    43 1   
    43    20    44 1   
    44    21    22 ar  
    45    21    25 1   
    46    22    23 ar  
    47    22    45 1   
    48    24    46 1   
    49    24    47 1   
    50    25    26 1   
    51    26    48 1   
    52    26    49 1   
    53    26    50 1   
    54    27    51 1   
    55    28    52 1   
    56    29    53 1   
@<TRIPOS>SUBSTRUCTURE
     1 9DJ         1 TEMP              0 ****  ****    0 ROOT
