@<TRIPOS>MOLECULE
9DK
   30    30     1     0     0
SMALL
bcc


@<TRIPOS>ATOM
      1 C67          3.4720    -0.3060     0.8480 c          1 9DK       0.951600
      2 C69          2.7260     0.5440    -0.2250 c3         1 9DK      -0.266000
      3 C70          2.6420     1.9780     0.3050 c3         1 9DK      -0.055100
      4 C71          3.4430     0.5470    -1.5730 c3         1 9DK      -0.055100
      5 C72          1.3740    -0.1330    -0.4060 c          1 9DK       0.707100
      6 C75         -1.0570    -0.0210    -0.1770 c3         1 9DK       0.115000
      7 C76         -2.0930     0.9430     0.3930 c3         1 9DK      -0.114700
      8 C77         -3.4780     0.4120     0.2480 cc         1 9DK       0.325600
      9 C78         -4.3290    -0.0110     1.2320 cd         1 9DK      -0.265600
     10 C80         -5.2570    -0.2470    -0.7340 cd         1 9DK       0.378400
     11 N74          0.2700     0.5460    -0.0660 ns         1 9DK      -0.583900
     12 N79         -5.4570    -0.4260     0.5850 na         1 9DK      -0.308900
     13 N81         -4.0740     0.2570    -0.9750 nc         1 9DK      -0.668000
     14 O68          2.8090    -0.5610     1.8730 o          1 9DK      -0.824800
     15 O73          1.3050    -1.2700    -0.8650 o          1 9DK      -0.639100
     16 H2           3.6480     2.3810     0.4330 hc         1 9DK       0.019700
     17 H3           2.1200     2.6420    -0.3890 hc         1 9DK       0.019700
     18 H4           2.1490     2.0310     1.2760 hc         1 9DK       0.019700
     19 H5           3.5790    -0.4600    -1.9640 hc         1 9DK       0.019700
     20 H6           2.8820     1.1230    -2.3130 hc         1 9DK       0.019700
     21 H7           4.4270     1.0040    -1.4770 hc         1 9DK       0.019700
     22 H8          -1.1040    -0.9690     0.3650 h1         1 9DK       0.049200
     23 H9          -1.2940    -0.2380    -1.2220 h1         1 9DK       0.049200
     24 H10         -1.8820     1.1240     1.4500 hc         1 9DK       0.048200
     25 H11         -2.0090     1.9070    -0.1180 hc         1 9DK       0.048200
     26 H12         -4.2280    -0.0490     2.3030 h4         1 9DK       0.175000
     27 H13         -6.0040    -0.4980    -1.4710 h5         1 9DK       0.046100
     28 H14          0.3520     1.4830     0.2920 hn         1 9DK       0.305500
     29 H15         -6.2900    -0.7950     1.0150 hn         1 9DK       0.292700
     30 O1           4.6510    -0.6260     0.6210 o          1 9DK      -0.824800
@<TRIPOS>BOND
     1     1     2 1   
     2     1    14 1   
     3     1    30 1   
     4     2     3 1   
     5     2     4 1   
     6     2     5 1   
     7     3    16 1   
     8     3    17 1   
     9     3    18 1   
    10     4    19 1   
    11     4    20 1   
    12     4    21 1   
    13     5    11 1   
    14     5    15 2   
    15     6     7 1   
    16     6    11 1   
    17     6    22 1   
    18     6    23 1   
    19     7     8 1   
    20     7    24 1   
    21     7    25 1   
    22     8     9 2   
    23     8    13 1   
    24     9    12 1   
    25     9    26 1   
    26    10    12 1   
    27    10    13 2   
    28    10    27 1   
    29    11    28 1   
    30    12    29 1   
@<TRIPOS>SUBSTRUCTURE
     1 9DK         1 TEMP              0 ****  ****    0 ROOT
