@<TRIPOS>MOLECULE
9DK
   30    30     1     0     0
SMALL
No Charge or Current Charge


@<TRIPOS>ATOM
      1 C67          3.5270    -0.3100     0.8530 c          1 9DK       0.741000
      2 C69          2.7660     0.5280    -0.1920 c3         1 9DK      -0.266000
      3 C70          2.6050     1.9920     0.3320 c3         1 9DK      -0.055100
      4 C71          3.4940     0.5860    -1.5710 c3         1 9DK      -0.055100
      5 C72          1.4320    -0.2140    -0.3690 c          1 9DK       0.640100
      6 C75         -1.0690    -0.0520    -0.1810 c3         1 9DK       0.115000
      7 C76         -2.1230     0.9550     0.3070 c3         1 9DK      -0.114700
      8 C77         -3.5220     0.4150     0.2120 cc         1 9DK       0.260300
      9 C78         -4.2980    -0.0710     1.2270 cd         1 9DK      -0.233000
     10 C80         -5.3750    -0.1530    -0.7280 cd         1 9DK       0.378400
     11 N74          0.2850     0.4840    -0.0600 ns         1 9DK      -0.516900
     12 N79         -5.4900    -0.4370     0.6200 na         1 9DK      -0.308500
     13 N81         -4.1820     0.3660    -0.9820 nc         1 9DK      -0.668000
     14 O68          3.0630    -0.3760     1.9820 o          1 9DK      -0.719500
     15 O73          1.3720    -1.3610    -0.7930 o          1 9DK      -0.639100
     16 H2           3.5880     2.4530     0.4850 hc         1 9DK       0.019700
     17 H3           2.0550     2.6120    -0.3870 hc         1 9DK       0.019700
     18 H4           2.0720     2.0260     1.2910 hc         1 9DK       0.019700
     19 H5           3.6630    -0.4190    -1.9790 hc         1 9DK       0.019700
     20 H6           2.8940     1.1450    -2.3010 hc         1 9DK       0.019700
     21 H7           4.4670     1.0840    -1.4830 hc         1 9DK       0.019700
     22 H8          -1.1410    -0.9740     0.4130 h1         1 9DK       0.049200
     23 H9          -1.2580    -0.3040    -1.2330 h1         1 9DK       0.049200
     24 H10         -1.9070     1.2260     1.3470 hc         1 9DK       0.048200
     25 H11         -2.0430     1.8770    -0.2810 hc         1 9DK       0.048200
     26 H12         -4.0950    -0.1780     2.2870 h4         1 9DK       0.157000
     27 H13         -6.1740    -0.3430    -1.4370 h5         1 9DK       0.046100
     28 H14          0.4060     1.4300     0.2760 hn         1 9DK       0.305500
     29 H15         -6.3080    -0.8400     1.0630 hn         1 9DK       0.343000
     30 O1           4.5890    -0.8330     0.5450 o          1 9DK      -0.719500
@<TRIPOS>BOND
     1     1     2 1   
     2     1    14 1   
     3     1    30 1   
     4     2     3 1   
     5     2     4 1   
     6     2     5 1   
     7     3    16 1   
     8     3    17 1   
     9     3    18 1   
    10     4    19 1   
    11     4    20 1   
    12     4    21 1   
    13     5    11 1   
    14     5    15 2   
    15     6     7 1   
    16     6    11 1   
    17     6    22 1   
    18     6    23 1   
    19     7     8 1   
    20     7    24 1   
    21     7    25 1   
    22     8     9 2   
    23     8    13 1   
    24     9    12 1   
    25     9    26 1   
    26    10    12 1   
    27    10    13 2   
    28    10    27 1   
    29    11    28 1   
    30    12    29 1   
@<TRIPOS>SUBSTRUCTURE
     1 9DK         1 TEMP              0 ****  ****    0 ROOT
