@<TRIPOS>MOLECULE
9DL
   41    41     1     0     0
SMALL
bcc


@<TRIPOS>ATOM
      1 C15        -30.5390   -41.2380    32.6820 ca         1 9DL       0.075600
      2 C17        -32.1350   -41.3590    30.8690 ca         1 9DL      -0.101000
      3 C20        -31.5880   -41.3500    33.5960 ca         1 9DL      -0.170000
      4 C01        -26.2990   -42.4410    35.5780 c3         1 9DL       0.156100
      5 C03        -25.2180   -40.2670    35.5980 c3         1 9DL       0.173800
      6 C04        -24.0930   -40.5120    34.5910 c3         1 9DL      -0.117400
      7 C05        -22.8680   -39.6640    34.9050 c3         1 9DL      -0.066400
      8 C06        -21.7330   -39.9170    33.9170 c3         1 9DL      -0.159400
      9 C07        -20.5230   -39.0590    34.2100 c          1 9DL       0.668100
     10 C11        -27.1280   -40.6780    34.1810 c3         1 9DL       0.094800
     11 C12        -28.6300   -40.9370    34.2600 c          1 9DL       0.667100
     12 C16        -30.8300   -41.2460    31.3140 ca         1 9DL      -0.170000
     13 C18        -33.1810   -41.4650    31.7770 ca         1 9DL      -0.156000
     14 C19        -32.8930   -41.4600    33.1330 ca         1 9DL      -0.101000
     15 N02        -26.4480   -41.0130    35.4000 n3         1 9DL      -0.706600
     16 N09        -19.3760   -39.7610    34.3070 ns         1 9DL      -0.456400
     17 N14        -29.1920   -41.1220    33.0370 ns         1 9DL      -0.481100
     18 O08        -20.5780   -37.8460    34.3150 o          1 9DL      -0.566100
     19 O10        -18.2320   -39.1480    34.7230 oh         1 9DL      -0.386100
     20 O13        -29.2480   -40.9280    35.3060 o          1 9DL      -0.551100
     21 H1         -32.3330   -41.3610    29.8040 ha         1 9DL       0.130500
     22 H2         -31.4000   -41.3550    34.6570 ha         1 9DL       0.144000
     23 H3         -25.8050   -42.6450    36.5290 h1         1 9DL       0.034367
     24 H4         -27.2770   -42.9240    35.6130 h1         1 9DL       0.034367
     25 H5         -25.7180   -42.9320    34.7850 h1         1 9DL       0.034367
     26 H6         -24.8510   -40.4930    36.6040 h1         1 9DL       0.058200
     27 H7         -25.4690   -39.2010    35.5960 h1         1 9DL       0.058200
     28 H8         -24.4400   -40.2840    33.5780 hc         1 9DL       0.038700
     29 H9         -23.8110   -41.5690    34.5920 hc         1 9DL       0.038700
     30 H10        -22.5220   -39.8820    35.9200 hc         1 9DL       0.056700
     31 H11        -23.1380   -38.6050    34.8890 hc         1 9DL       0.056700
     32 H12        -22.0690   -39.6790    32.9040 hc         1 9DL       0.058700
     33 H13        -21.4760   -40.9800    33.9140 hc         1 9DL       0.058700
     34 H14        -26.7130   -41.1820    33.2930 h1         1 9DL       0.045700
     35 H15        -27.0170   -39.6040    33.9930 h1         1 9DL       0.045700
     36 H16        -30.0240   -41.1610    30.5930 ha         1 9DL       0.144000
     37 H17        -34.2020   -41.5510    31.4310 ha         1 9DL       0.133000
     38 H18        -33.6950   -41.5450    33.8550 ha         1 9DL       0.130500
     39 H20        -19.3710   -40.7670    34.4020 hn         1 9DL       0.331500
     40 H21        -28.5520   -41.1170    32.2560 hn         1 9DL       0.311500
     41 H22        -17.7230   -38.9610    33.9240 ho         1 9DL       0.407000
@<TRIPOS>BOND
     1     1     3 ar  
     2     1    12 ar  
     3     1    17 1   
     4     2    12 ar  
     5     2    13 ar  
     6     2    21 1   
     7     3    14 ar  
     8     3    22 1   
     9     4    15 1   
    10     4    23 1   
    11     4    24 1   
    12     4    25 1   
    13     5     6 1   
    14     5    15 1   
    15     5    26 1   
    16     5    27 1   
    17     6     7 1   
    18     6    28 1   
    19     6    29 1   
    20     7     8 1   
    21     7    30 1   
    22     7    31 1   
    23     8     9 1   
    24     8    32 1   
    25     8    33 1   
    26     9    16 1   
    27     9    18 2   
    28    10    11 1   
    29    10    15 1   
    30    10    34 1   
    31    10    35 1   
    32    11    17 1   
    33    11    20 2   
    34    12    36 1   
    35    13    14 ar  
    36    13    37 1   
    37    14    38 1   
    38    16    19 1   
    39    16    39 1   
    40    17    40 1   
    41    19    41 1   
@<TRIPOS>SUBSTRUCTURE
     1 9DL         1 TEMP              0 ****  ****    0 ROOT
