@<TRIPOS>MOLECULE
9DL
   41    41     1     0     0
SMALL
No Charge or Current Charge


@<TRIPOS>ATOM
      1 C15        -30.5860   -41.1630    32.6870 ca         1 9DL      -0.017000
      2 C17        -32.0470   -41.3110    30.7300 ca         1 9DL      -0.083000
      3 C20        -31.6480   -41.6340    33.4920 ca         1 9DL      -0.152000
      4 C01        -26.3130   -42.3650    35.7320 c3         1 9DL       0.156100
      5 C03        -25.1120   -40.1860    35.7920 c3         1 9DL       0.173800
      6 C04        -24.1190   -40.4090    34.6240 c3         1 9DL      -0.117400
      7 C05        -22.7840   -39.6560    34.8220 c3         1 9DL      -0.066400
      8 C06        -21.7900   -39.8750    33.6560 c3         1 9DL      -0.159400
      9 C07        -20.4750   -39.1170    33.8830 c          1 9DL       0.601100
     10 C11        -27.2650   -40.3970    34.5210 c3         1 9DL       0.094800
     11 C12        -28.7720   -40.8010    34.4790 c          1 9DL       0.600100
     12 C16        -30.7990   -41.0090    31.3030 ca         1 9DL      -0.152000
     13 C18        -33.0960   -41.7740    31.5380 ca         1 9DL      -0.138000
     14 C19        -32.8960   -41.9360    32.9180 ca         1 9DL      -0.083000
     15 N02        -26.4170   -40.8870    35.6620 n3         1 9DL      -0.706600
     16 N09        -19.3820   -39.9150    34.2010 ns         1 9DL      -0.389400
     17 N14        -29.2960   -40.8400    33.1910 ns         1 9DL      -0.155000
     18 O08        -20.3890   -37.9020    33.7530 o          1 9DL      -0.566100
     19 O10        -18.1450   -39.3310    34.6780 oh         1 9DL      -0.425100
     20 O13        -29.4220   -41.0490    35.4920 o          1 9DL      -0.551100
     21 H1         -32.1990   -41.1850    29.6600 ha         1 9DL       0.112500
     22 H2         -31.5290   -41.7780    34.5610 ha         1 9DL       0.126000
     23 H3         -25.7220   -42.6720    36.6050 h1         1 9DL       0.034367
     24 H4         -27.3050   -42.8250    35.8230 h1         1 9DL       0.034367
     25 H5         -25.8320   -42.7710    34.8310 h1         1 9DL       0.034367
     26 H6         -24.6220   -40.5010    36.7240 h1         1 9DL       0.058200
     27 H7         -25.2890   -39.1050    35.8890 h1         1 9DL       0.058200
     28 H8         -24.5750   -40.0770    33.6840 hc         1 9DL       0.038700
     29 H9         -23.9070   -41.4800    34.5210 hc         1 9DL       0.038700
     30 H10        -22.3190   -39.9850    35.7600 hc         1 9DL       0.056700
     31 H11        -22.9880   -38.5820    34.9270 hc         1 9DL       0.056700
     32 H12        -22.2510   -39.5050    32.7330 hc         1 9DL       0.058700
     33 H13        -21.5910   -40.9490    33.5660 hc         1 9DL       0.058700
     34 H14        -26.8220   -40.7320    33.5740 h1         1 9DL       0.045700
     35 H15        -27.2520   -39.3000    34.4960 h1         1 9DL       0.045700
     36 H16        -29.9940   -40.6510    30.6650 ha         1 9DL       0.126000
     37 H17        -34.0620   -42.0080    31.0960 ha         1 9DL       0.115000
     38 H18        -33.7080   -42.2980    33.5450 ha         1 9DL       0.112500
     39 H20        -19.5340   -40.8960    34.4290 hn         1 9DL       0.331500
     40 H21        -28.6300   -40.5930    32.4690 hn         1 9DL       0.145000
     41 H22        -17.4540   -39.7590    34.1170 ho         1 9DL       0.446000
@<TRIPOS>BOND
     1     1     3 ar  
     2     1    12 ar  
     3     1    17 1   
     4     2    12 ar  
     5     2    13 ar  
     6     2    21 1   
     7     3    14 ar  
     8     3    22 1   
     9     4    15 1   
    10     4    23 1   
    11     4    24 1   
    12     4    25 1   
    13     5     6 1   
    14     5    15 1   
    15     5    26 1   
    16     5    27 1   
    17     6     7 1   
    18     6    28 1   
    19     6    29 1   
    20     7     8 1   
    21     7    30 1   
    22     7    31 1   
    23     8     9 1   
    24     8    32 1   
    25     8    33 1   
    26     9    16 1   
    27     9    18 2   
    28    10    11 1   
    29    10    15 1   
    30    10    34 1   
    31    10    35 1   
    32    11    17 1   
    33    11    20 2   
    34    12    36 1   
    35    13    14 ar  
    36    13    37 1   
    37    14    38 1   
    38    16    19 1   
    39    16    39 1   
    40    17    40 1   
    41    19    41 1   
@<TRIPOS>SUBSTRUCTURE
     1 9DL         1 TEMP              0 ****  ****    0 ROOT
