@<TRIPOS>MOLECULE
9DN
   43    44     1     0     0
SMALL
bcc


@<TRIPOS>ATOM
      1 N           53.4540    33.2800    76.3080 n7         1 9DN      -0.819100
      2 CA          54.6260    33.0010    77.1320 c3         1 9DN       0.049500
      3 C           54.1310    32.7880    78.5940 c          1 9DN       0.933600
      4 O           52.8990    32.6920    78.7500 o          1 9DN      -0.803800
      5 CB          55.6350    34.1490    77.0390 c3         1 9DN      -0.137400
      6 CG          56.9540    33.9290    77.7500 c          1 9DN       0.713100
      7 OD1         57.4070    34.7330    78.5510 o          1 9DN      -0.626100
      8 ND2         57.6350    32.8330    77.3670 nt         1 9DN      -0.682000
      9 OXT         55.0210    32.7250    79.4530 o          1 9DN      -0.803800
     10 S1          53.3120    32.6190    74.8140 sy         1 9DN       1.274200
     11 O2          53.8070    31.2470    74.7660 o          1 9DN      -0.642800
     12 O3          51.9350    32.8460    74.3920 o          1 9DN      -0.642800
     13 N1          56.1710    37.8180    72.1310 nh         1 9DN      -0.639000
     14 C1          54.4260    33.6080    73.8440 ca         1 9DN      -0.241500
     15 C2          55.4700    32.9480    73.2510 ca         1 9DN      -0.030000
     16 C3          56.3870    33.6510    72.4550 ca         1 9DN      -0.170000
     17 C4          56.2680    35.0030    72.3100 ca         1 9DN      -0.063000
     18 C5          55.2300    35.7230    72.9460 ca         1 9DN      -0.060000
     19 C6          54.2460    35.0160    73.6940 ca         1 9DN       0.064000
     20 C7          53.1510    35.7350    74.2290 ca         1 9DN      -0.118000
     21 C8          53.0540    37.0830    74.0220 ca         1 9DN      -0.103000
     22 C9          54.0440    37.7940    73.3260 ca         1 9DN      -0.180000
     23 C10         55.1410    37.1460    72.8090 ca         1 9DN       0.125600
     24 C11         55.8170    39.0770    71.5120 c3         1 9DN       0.172100
     25 C12         57.4150    37.9310    72.8810 c3         1 9DN       0.172100
     26 H           52.6160    33.1210    76.8790 hn         1 9DN       0.478800
     27 H111        55.6550    39.8940    72.2290 h1         1 9DN       0.032367
     28 H112        56.6290    39.3810    70.8510 h1         1 9DN       0.032367
     29 H113        54.9170    38.9660    70.9090 h1         1 9DN       0.032367
     30 H121        58.2190    38.2340    72.2090 h1         1 9DN       0.032367
     31 H122        57.3440    38.6730    73.6870 h1         1 9DN       0.032367
     32 H123        57.6970    36.9790    73.3280 h1         1 9DN       0.032367
     33 H2          55.5930    31.8820    73.3830 ha         1 9DN       0.159000
     34 H3          57.1830    33.1130    71.9590 ha         1 9DN       0.126000
     35 H4          56.9670    35.5350    71.6790 ha         1 9DN       0.138000
     36 H7          52.3780    35.2350    74.7890 ha         1 9DN       0.165000
     37 H8          52.2070    37.6220    74.4250 ha         1 9DN       0.130000
     38 H9          53.9380    38.8650    73.2220 ha         1 9DN       0.124000
     39 HA          55.0940    32.0590    76.8220 h1         1 9DN       0.039700
     40 HB1C        55.8670    34.3370    75.9860 hc         1 9DN       0.053200
     41 HB2C        55.1820    35.0620    77.4270 hc         1 9DN       0.053200
     42 HD21        57.2790    32.1870    76.6840 hn         1 9DN       0.298500
     43 HD22        58.5270    32.6190    77.7810 hn         1 9DN       0.298500
@<TRIPOS>BOND
     1     1     2 1   
     2     1    10 1   
     3     1    26 1   
     4     2     3 1   
     5     2     5 1   
     6     2    39 1   
     7     3     4 1   
     8     3     9 1   
     9     5     6 1   
    10     5    40 1   
    11     5    41 1   
    12     6     7 2   
    13     6     8 1   
    14     8    42 1   
    15     8    43 1   
    16    10    11 2   
    17    10    12 2   
    18    10    14 1   
    19    13    23 1   
    20    13    24 1   
    21    13    25 1   
    22    14    15 ar  
    23    14    19 ar  
    24    15    16 ar  
    25    15    33 1   
    26    16    17 ar  
    27    16    34 1   
    28    17    18 ar  
    29    17    35 1   
    30    18    19 ar  
    31    18    23 ar  
    32    19    20 ar  
    33    20    21 ar  
    34    20    36 1   
    35    21    22 ar  
    36    21    37 1   
    37    22    23 ar  
    38    22    38 1   
    39    24    27 1   
    40    24    28 1   
    41    24    29 1   
    42    25    30 1   
    43    25    31 1   
    44    25    32 1   
@<TRIPOS>SUBSTRUCTURE
     1 9DN         1 TEMP              0 ****  ****    0 ROOT
