@<TRIPOS>MOLECULE
9DN
   43    44     1     0     0
SMALL
No Charge or Current Charge


@<TRIPOS>ATOM
      1 N           53.2520    33.3450    76.5400 n7         1 9DN      -0.874300
      2 CA          54.7020    33.3550    76.9340 c3         1 9DN       0.049500
      3 C           55.3540    31.9190    77.0560 c          1 9DN       0.723000
      4 O           54.8230    31.1060    77.8040 o          1 9DN      -0.698500
      5 CB          54.8220    34.1470    78.2570 c3         1 9DN      -0.137400
      6 CG          56.2870    34.4610    78.5710 c          1 9DN       0.646100
      7 OD1         57.0140    33.7170    79.2070 o          1 9DN      -0.626100
      8 ND2         56.7610    35.6320    78.0940 nt         1 9DN      -0.615000
      9 OXT         56.3300    31.6630    76.3640 o          1 9DN      -0.698500
     10 S1          52.8160    32.8100    75.0180 sy         1 9DN       1.132600
     11 O2          52.9730    31.3550    75.0470 o          1 9DN      -0.572000
     12 O3          51.5190    33.4380    74.7550 o          1 9DN      -0.572000
     13 N1          56.4710    37.4210    71.9700 nh         1 9DN      -0.777400
     14 C1          54.0710    33.5650    73.9460 ca         1 9DN      -0.241500
     15 C2          54.8990    32.6870    73.2160 ca         1 9DN      -0.012000
     16 C3          55.8810    33.1850    72.3530 ca         1 9DN      -0.152000
     17 C4          56.0610    34.5650    72.2120 ca         1 9DN      -0.045000
     18 C5          55.2640    35.4740    72.9440 ca         1 9DN      -0.060000
     19 C6          54.2520    34.9760    73.8150 ca         1 9DN       0.064000
     20 C7          53.4650    35.9090    74.5350 ca         1 9DN      -0.100000
     21 C8          53.6620    37.2880    74.3880 ca         1 9DN      -0.085000
     22 C9          54.6530    37.7660    73.5260 ca         1 9DN      -0.162000
     23 C10         55.4640    36.8760    72.8040 ca         1 9DN       0.264000
     24 C11         56.1240    38.3940    70.9140 c3         1 9DN       0.172100
     25 C12         57.8880    37.3580    72.3820 c3         1 9DN       0.172100
     26 H           52.7700    32.6430    77.1040 hn         1 9DN       0.534000
     27 H111        56.2080    39.4210    71.2930 h1         1 9DN       0.032367
     28 H112        56.7940    38.2800    70.0520 h1         1 9DN       0.032367
     29 H113        55.0950    38.2310    70.5650 h1         1 9DN       0.032367
     30 H121        58.5150    37.0190    71.5460 h1         1 9DN       0.032367
     31 H122        58.2380    38.3460    72.7110 h1         1 9DN       0.032367
     32 H123        58.0190    36.6520    73.2130 h1         1 9DN       0.032367
     33 H2          54.7840    31.6080    73.3040 ha         1 9DN       0.141000
     34 H3          56.5060    32.4970    71.7890 ha         1 9DN       0.108000
     35 H4          56.8260    34.9180    71.5260 ha         1 9DN       0.120000
     36 H7          52.6930    35.5930    75.2270 ha         1 9DN       0.147000
     37 H8          53.0470    37.9870    74.9500 ha         1 9DN       0.112000
     38 H9          54.8040    38.8380    73.4290 ha         1 9DN       0.106000
     39 HA          55.2830    33.9090    76.1860 h1         1 9DN       0.039700
     40 HB1C        54.2830    35.0920    78.1160 hc         1 9DN       0.053200
     41 HB2C        54.3800    33.5690    79.0770 hc         1 9DN       0.053200
     42 HD21        56.1560    36.2420    77.5640 hn         1 9DN       0.298500
     43 HD22        57.7210    35.8850    78.2720 hn         1 9DN       0.298500
@<TRIPOS>BOND
     1     1     2 1   
     2     1    10 1   
     3     1    26 1   
     4     2     3 1   
     5     2     5 1   
     6     2    39 1   
     7     3     4 1   
     8     3     9 1   
     9     5     6 1   
    10     5    40 1   
    11     5    41 1   
    12     6     7 2   
    13     6     8 1   
    14     8    42 1   
    15     8    43 1   
    16    10    11 2   
    17    10    12 2   
    18    10    14 1   
    19    13    23 1   
    20    13    24 1   
    21    13    25 1   
    22    14    15 ar  
    23    14    19 ar  
    24    15    16 ar  
    25    15    33 1   
    26    16    17 ar  
    27    16    34 1   
    28    17    18 ar  
    29    17    35 1   
    30    18    19 ar  
    31    18    23 ar  
    32    19    20 ar  
    33    20    21 ar  
    34    20    36 1   
    35    21    22 ar  
    36    21    37 1   
    37    22    23 ar  
    38    22    38 1   
    39    24    27 1   
    40    24    28 1   
    41    24    29 1   
    42    25    30 1   
    43    25    31 1   
    44    25    32 1   
@<TRIPOS>SUBSTRUCTURE
     1 9DN         1 TEMP              0 ****  ****    0 ROOT
