@<TRIPOS>MOLECULE
9DP
   58    61     1     0     0
SMALL
No Charge or Current Charge


@<TRIPOS>ATOM
      1 C1          -5.6800    -2.6900    -1.0580 ca         1 9DP       0.138000
      2 N1          -2.8530    -0.3180    -0.4680 ns         1 9DP      -0.173000
      3 O1          -2.9730     1.9870    -0.3790 o          1 9DP      -0.596100
      4 Cl1         -5.9970    -4.4260    -1.0340 cl         1 9DP      -0.178000
      5 C2          -4.3990    -2.1780    -0.7560 ca         1 9DP       0.068000
      6 N2          -0.9740     0.9190    -0.0200 ns         1 9DP      -0.412100
      7 O2           6.9240    -3.0970    -2.6750 o          1 9DP      -0.725500
      8 Cl2         -3.0810    -3.2870    -0.3460 cl         1 9DP      -0.170000
      9 C3          -6.7280    -1.8160    -1.3840 ca         1 9DP      -0.120000
     10 N3           1.8870     3.1360     0.6730 nc         1 9DP      -0.490800
     11 O3           7.9960    -2.5940    -0.9050 o          1 9DP      -0.725500
     12 C4          -6.5030    -0.4320    -1.4120 ca         1 9DP      -0.083000
     13 N4           1.2600     1.9250     0.5000 na         1 9DP       0.211000
     14 C5          -5.2300     0.0840    -1.1130 ca         1 9DP      -0.106000
     15 N5           5.5540    -2.9450     0.6100 n7         1 9DP      -0.856400
     16 C6          -4.1640    -0.7830    -0.7770 ca         1 9DP       0.011000
     17 C7          -2.3270     0.9530    -0.2990 c          1 9DP       0.672100
     18 C8          -0.0980     1.9790     0.2140 cc         1 9DP       0.003600
     19 C9          -0.3380     3.3220     0.1980 cd         1 9DP      -0.226000
     20 C10          0.8870     3.9860     0.4790 cd         1 9DP       0.259300
     21 C11          1.0750     5.5010     0.5590 c3         1 9DP      -0.069300
     22 C12          2.5450     5.9000     0.8850 c3         1 9DP      -0.078767
     23 C13          0.6850     6.1320    -0.8030 c3         1 9DP      -0.078767
     24 C14          0.1540     6.0670     1.6710 c3         1 9DP      -0.078767
     25 C15          1.5640    -0.2230     1.6080 ca         1 9DP      -0.144000
     26 C16          1.9760     0.7360     0.6620 ca         1 9DP      -0.021200
     27 C17          3.1190     0.4840    -0.1220 ca         1 9DP      -0.103000
     28 C18          2.2820    -1.4200     1.7630 ca         1 9DP      -0.115000
     29 C19          3.4220    -1.6740     0.9780 ca         1 9DP      -0.060300
     30 C20          3.8410    -0.7160     0.0250 ca         1 9DP      -0.030300
     31 C21          4.1790    -2.9990     1.1520 c6         1 9DP       0.211100
     32 C22          5.5870    -2.4240    -0.8050 c6         1 9DP       0.029500
     33 C23          5.0910    -0.9550    -0.8320 c6         1 9DP      -0.014100
     34 C24          6.9700    -2.5610    -1.5750 c          1 9DP       0.726000
     35 HN1         -2.1830    -1.0660    -0.3490 hn         1 9DP       0.165000
     36 HN2         -0.5820    -0.0130     0.0150 hn         1 9DP       0.335500
     37 H3          -7.7140    -2.2130    -1.6160 ha         1 9DP       0.130000
     38 H4          -7.3160     0.2450    -1.6690 ha         1 9DP       0.121000
     39 H5          -5.0950     1.1590    -1.1540 ha         1 9DP       0.143000
     40 HN5          5.9580    -3.8920     0.6320 hn         1 9DP       0.446000
     41 H9          -1.2850     3.8100     0.0040 ha         1 9DP       0.152000
     42 H12          3.2340     5.5320     0.1140 hc         1 9DP       0.034478
     43 H12A         2.6540     6.9900     0.9360 hc         1 9DP       0.034478
     44 H12B         2.8610     5.4870     1.8510 hc         1 9DP       0.034478
     45 H13         -0.3630     5.9230    -1.0510 hc         1 9DP       0.034478
     46 H13A         0.8130     7.2220    -0.7840 hc         1 9DP       0.034478
     47 H13B         1.3100     5.7300    -1.6100 hc         1 9DP       0.034478
     48 H14          0.3970     5.6190     2.6430 hc         1 9DP       0.034478
     49 H14A         0.2670     7.1550     1.7610 hc         1 9DP       0.034478
     50 H14B        -0.9010     5.8570     1.4580 hc         1 9DP       0.034478
     51 H15          0.6910    -0.0370     2.2310 ha         1 9DP       0.113000
     52 H17          3.4450     1.2240    -0.8500 ha         1 9DP       0.132000
     53 H18          1.9520    -2.1540     2.4950 ha         1 9DP       0.105000
     54 H21          3.6190    -3.7940     0.6370 h1         1 9DP       0.019200
     55 H21A         4.2230    -3.2630     2.2190 h1         1 9DP       0.019200
     56 H22          4.8630    -3.0220    -1.3790 h1         1 9DP       0.002700
     57 H23          4.8950    -0.6580    -1.8710 hc         1 9DP       0.066200
     58 H23A         5.8940    -0.2960    -0.4730 hc         1 9DP       0.066200
@<TRIPOS>BOND
     1     1     4 1   
     2     1     5 ar  
     3     1     9 ar  
     4     2    16 1   
     5     2    17 1   
     6     2    35 1   
     7     3    17 2   
     8     5     8 1   
     9     5    16 ar  
    10     6    17 1   
    11     6    18 1   
    12     6    36 1   
    13     7    34 1   
    14     9    12 ar  
    15     9    37 1   
    16    10    13 1   
    17    10    20 2   
    18    11    34 1   
    19    12    14 ar  
    20    12    38 1   
    21    13    18 1   
    22    13    26 1   
    23    14    16 ar  
    24    14    39 1   
    25    15    31 1   
    26    15    32 1   
    27    15    40 1   
    28    18    19 2   
    29    19    20 1   
    30    19    41 1   
    31    20    21 1   
    32    21    22 1   
    33    21    23 1   
    34    21    24 1   
    35    22    42 1   
    36    22    43 1   
    37    22    44 1   
    38    23    45 1   
    39    23    46 1   
    40    23    47 1   
    41    24    48 1   
    42    24    49 1   
    43    24    50 1   
    44    25    26 ar  
    45    25    28 ar  
    46    25    51 1   
    47    26    27 ar  
    48    27    30 ar  
    49    27    52 1   
    50    28    29 ar  
    51    28    53 1   
    52    29    30 ar  
    53    29    31 1   
    54    30    33 1   
    55    31    54 1   
    56    31    55 1   
    57    32    33 1   
    58    32    34 1   
    59    32    56 1   
    60    33    57 1   
    61    33    58 1   
@<TRIPOS>SUBSTRUCTURE
     1 9DP         1 TEMP              0 ****  ****    0 ROOT
