@<TRIPOS>MOLECULE
9DP
   58    61     1     0     0
SMALL
abcg2


@<TRIPOS>ATOM
      1 C1          -5.8450    -2.4240    -0.3780 ca         1 9DP       0.138000
      2 N1          -2.7980    -0.4100    -0.8750 ns         1 9DP      -0.173000
      3 O1          -2.9120     1.6220     0.1590 o          1 9DP      -0.596100
      4 CL1         -6.2800    -4.0350     0.0500 cl         1 9DP      -0.178000
      5 C2          -4.5050    -2.0530    -0.4250 ca         1 9DP       0.068000
      6 N2          -0.9110     0.8390    -0.5910 ns         1 9DP      -0.412100
      7 O2           7.7050    -1.4370    -1.7840 o          1 9DP      -0.725500
      8 CL2         -3.2760    -3.1960    -0.0410 cl         1 9DP      -0.170000
      9 C3          -6.8410    -1.5050    -0.6580 ca         1 9DP      -0.120000
     10 N3           1.6950     2.9500     0.5180 nc         1 9DP      -0.490800
     11 O3           7.9480    -3.1780    -0.4130 o          1 9DP      -0.725500
     12 C4          -6.4850    -0.2110    -1.0040 ca         1 9DP      -0.083000
     13 N4           1.1160     1.7680     0.2560 na         1 9DP       0.211000
     14 C5          -5.1560     0.1650    -1.0810 ca         1 9DP      -0.106000
     15 N5           5.5350    -2.7830     0.7160 n7         1 9DP      -0.856400
     16 C6          -4.1470    -0.7490    -0.7840 ca         1 9DP       0.011000
     17 C7          -2.2640     0.7550    -0.3910 c          1 9DP       0.672100
     18 C8          -0.1570     1.9260    -0.1880 cc         1 9DP       0.003600
     19 C9          -0.4180     3.2730    -0.1800 cd         1 9DP      -0.226000
     20 C10          0.7810     3.8650     0.2760 cd         1 9DP       0.259300
     21 C11          1.0440     5.3330     0.4770 c3         1 9DP      -0.069300
     22 C12          2.4820     5.5790     0.9330 c3         1 9DP      -0.078767
     23 C13          0.8040     6.0710    -0.8460 c3         1 9DP      -0.078767
     24 C14          0.0760     5.8740     1.5370 c3         1 9DP      -0.078767
     25 C15          1.2980    -0.5080     1.0950 ca         1 9DP      -0.144000
     26 C16          1.8490     0.5700     0.4110 ca         1 9DP      -0.021200
     27 C17          3.1320     0.4850    -0.1070 ca         1 9DP      -0.103000
     28 C18          2.0450    -1.6650     1.2360 ca         1 9DP      -0.115000
     29 C19          3.3390    -1.7600     0.7310 ca         1 9DP      -0.060300
     30 C20          3.8900    -0.6710     0.0520 ca         1 9DP      -0.030300
     31 C21          4.1260    -3.0330     0.8990 c6         1 9DP       0.211100
     32 C22          5.8000    -2.1670    -0.5690 c6         1 9DP       0.029500
     33 C23          5.2870    -0.7360    -0.5110 c6         1 9DP      -0.014100
     34 C24          7.2930    -2.2610    -0.9460 c          1 9DP       0.726000
     35 HN1         -2.1670    -1.1390    -1.1730 hn         1 9DP       0.165000
     36 HN2         -0.4330     0.0990    -1.0850 hn         1 9DP       0.335500
     37 H3          -7.8790    -1.8010    -0.6110 ha         1 9DP       0.130000
     38 H4          -7.2570     0.5090    -1.2360 ha         1 9DP       0.121000
     39 H5          -4.8980     1.1670    -1.3890 ha         1 9DP       0.143000
     40 HN5          6.0660    -3.6400     0.7880 hn         1 9DP       0.446000
     41 H9          -1.3300     3.7580    -0.4800 ha         1 9DP       0.152000
     42 H12          3.2050     5.2340     0.1930 hc         1 9DP       0.034478
     43 H12A         2.6390     6.6490     1.0810 hc         1 9DP       0.034478
     44 H12B         2.7030     5.0760     1.8750 hc         1 9DP       0.034478
     45 H13         -0.2230     5.9510    -1.1940 hc         1 9DP       0.034478
     46 H13A         0.9900     7.1390    -0.7210 hc         1 9DP       0.034478
     47 H13B         1.4680     5.7040    -1.6310 hc         1 9DP       0.034478
     48 H14          0.2280     5.3840     2.5000 hc         1 9DP       0.034478
     49 H14A         0.2320     6.9460     1.6770 hc         1 9DP       0.034478
     50 H14B        -0.9650     5.7260     1.2450 hc         1 9DP       0.034478
     51 H15          0.3110    -0.4430     1.5340 ha         1 9DP       0.113000
     52 H17          3.5500     1.3300    -0.6400 ha         1 9DP       0.132000
     53 H18          1.6180    -2.5040     1.7710 ha         1 9DP       0.105000
     54 H21          3.7240    -3.7800     0.1920 h1         1 9DP       0.019200
     55 H21A         3.9530    -3.4370     1.9000 h1         1 9DP       0.019200
     56 H22          5.2480    -2.6850    -1.3790 h1         1 9DP       0.002700
     57 H23          5.3050    -0.2830    -1.5030 hc         1 9DP       0.066200
     58 H23A         5.9510    -0.1340     0.1180 hc         1 9DP       0.066200
@<TRIPOS>BOND
     1     1     4 1   
     2     1     5 ar  
     3     1     9 ar  
     4     2    16 1   
     5     2    17 1   
     6     2    35 1   
     7     3    17 2   
     8     5     8 1   
     9     5    16 ar  
    10     6    17 1   
    11     6    18 1   
    12     6    36 1   
    13     7    34 1   
    14     9    12 ar  
    15     9    37 1   
    16    10    13 1   
    17    10    20 2   
    18    11    34 1   
    19    12    14 ar  
    20    12    38 1   
    21    13    18 1   
    22    13    26 1   
    23    14    16 ar  
    24    14    39 1   
    25    15    31 1   
    26    15    32 1   
    27    15    40 1   
    28    18    19 2   
    29    19    20 1   
    30    19    41 1   
    31    20    21 1   
    32    21    22 1   
    33    21    23 1   
    34    21    24 1   
    35    22    42 1   
    36    22    43 1   
    37    22    44 1   
    38    23    45 1   
    39    23    46 1   
    40    23    47 1   
    41    24    48 1   
    42    24    49 1   
    43    24    50 1   
    44    25    26 ar  
    45    25    28 ar  
    46    25    51 1   
    47    26    27 ar  
    48    27    30 ar  
    49    27    52 1   
    50    28    29 ar  
    51    28    53 1   
    52    29    30 ar  
    53    29    31 1   
    54    30    33 1   
    55    31    54 1   
    56    31    55 1   
    57    32    33 1   
    58    32    34 1   
    59    32    56 1   
    60    33    57 1   
    61    33    58 1   
@<TRIPOS>SUBSTRUCTURE
     1 9DP         1 TEMP              0 ****  ****    0 ROOT
