@<TRIPOS>MOLECULE
9DQ
   17    17     1     0     0
SMALL
No Charge or Current Charge


@<TRIPOS>ATOM
      1 C57          2.6220     0.2380    -0.0130 c          1 9DQ       0.725000
      2 C59          1.1220    -0.0670    -0.4280 c3         1 9DQ       0.029500
      3 C60          0.1610     0.1490     0.7700 c3         1 9DQ      -0.147700
      4 C61         -1.2920     0.2300     0.3940 cc         1 9DQ       0.421800
      5 N62         -2.2470    -0.7080     0.6540 na         1 9DQ      -0.229700
      6 N63         -3.4540    -0.2990     0.1880 nc         1 9DQ      -0.246800
      7 N64         -3.2190     0.8700    -0.3410 nd         1 9DQ      -0.065000
      8 N65         -1.8950     1.2250    -0.2230 nd         1 9DQ      -0.398000
      9 N66          0.8690    -1.4160    -1.0560 n8         1 9DQ      -0.983200
     10 O58          3.1440    -0.4590     0.8500 o          1 9DQ      -0.720500
     11 H2           0.8690     0.6920    -1.1840 h1         1 9DQ       0.067700
     12 H3           0.3140    -0.6430     1.5130 hc         1 9DQ       0.070200
     13 H4           0.4350     1.0860     1.2700 hc         1 9DQ       0.070200
     14 H5          -2.1160    -1.5930     1.1300 hn         1 9DQ       0.375000
     15 H6           1.1340    -2.1530    -0.3920 hn         1 9DQ       0.377000
     16 H7          -0.1370    -1.5540    -1.2080 hn         1 9DQ       0.377000
     17 OXT          3.2180     1.1320    -0.6010 o          1 9DQ      -0.720500
@<TRIPOS>BOND
     1     1     2 1   
     2     1    10 1   
     3     1    17 1   
     4     2     3 1   
     5     2     9 1   
     6     2    11 1   
     7     3     4 1   
     8     3    12 1   
     9     3    13 1   
    10     4     5 1   
    11     4     8 2   
    12     5     6 1   
    13     5    14 1   
    14     6     7 2   
    15     7     8 1   
    16     9    15 1   
    17     9    16 1   
@<TRIPOS>SUBSTRUCTURE
     1 9DQ         1 TEMP              0 ****  ****    0 ROOT
