@<TRIPOS>MOLECULE
9DQ
   17    17     1     0     0
SMALL
abcg2


@<TRIPOS>ATOM
      1 C57          2.5530     0.0860     0.0480 c          1 9DQ       0.725000
      2 C59          1.1020    -0.0550    -0.4730 c3         1 9DQ       0.029500
      3 C60          0.1640     0.2670     0.7120 c3         1 9DQ      -0.147700
      4 C61         -1.2690     0.2080     0.3360 cc         1 9DQ       0.421800
      5 N62         -2.1990    -0.5570     0.9100 na         1 9DQ      -0.229700
      6 N63         -3.3630    -0.3570     0.3170 nc         1 9DQ      -0.246800
      7 N64         -3.1510     0.5030    -0.5990 nd         1 9DQ      -0.065000
      8 N65         -1.8710     0.8770    -0.6220 nd         1 9DQ      -0.398000
      9 N66          0.8770    -1.3430    -1.0910 n8         1 9DQ      -0.983200
     10 O58          3.2180    -0.9570     0.1780 o          1 9DQ      -0.720500
     11 H2           0.9400     0.7160    -1.2330 h1         1 9DQ       0.067700
     12 H3           0.3480    -0.4340     1.5300 hc         1 9DQ       0.070200
     13 H4           0.3850     1.2670     1.0880 hc         1 9DQ       0.070200
     14 H5          -2.1150    -1.2040     1.6810 hn         1 9DQ       0.375000
     15 H6           1.0920    -2.0810    -0.4330 hn         1 9DQ       0.377000
     16 H7          -0.0920    -1.4530    -1.3590 hn         1 9DQ       0.377000
     17 OXT          2.9100     1.2460     0.3330 o          1 9DQ      -0.720500
@<TRIPOS>BOND
     1     1     2 1   
     2     1    10 1   
     3     1    17 1   
     4     2     3 1   
     5     2     9 1   
     6     2    11 1   
     7     3     4 1   
     8     3    12 1   
     9     3    13 1   
    10     4     5 1   
    11     4     8 2   
    12     5     6 1   
    13     5    14 1   
    14     6     7 2   
    15     7     8 1   
    16     9    15 1   
    17     9    16 1   
@<TRIPOS>SUBSTRUCTURE
     1 9DQ         1 TEMP              0 ****  ****    0 ROOT
