@<TRIPOS>MOLECULE
9DR
   48    50     1     0     0
SMALL
abcg2


@<TRIPOS>ATOM
      1 N1          -4.3670     0.7250    -1.9430 nb         1 9DR      -0.338000
      2 C2          -5.5450     0.6030    -1.3310 ca         1 9DR       0.430900
      3 N3          -5.7400     0.3800    -0.0260 nb         1 9DR      -0.290000
      4 C4          -4.6570     0.2680     0.7310 ca         1 9DR       0.222300
      5 C5          -3.3700     0.3770     0.2070 ca         1 9DR      -0.220000
      6 C6          -3.2810     0.6140    -1.1900 ca         1 9DR       0.435900
      7 CAA         -4.8140    -1.5340     2.4510 c3         1 9DR      -0.084100
      8 CAB          1.0750     3.4740    -1.6330 c3         1 9DR       0.145900
      9 NAC         -6.6430     0.6900    -2.1020 nv         1 9DR      -1.065900
     10 NAD         -2.0870     0.7620    -1.7880 nv         1 9DR      -1.067900
     11 CAE         -1.1320     0.1960     1.5580 c1         1 9DR      -0.166100
     12 CAF         -2.1900     0.2710     0.9830 cg         1 9DR      -0.077000
     13 CAG          6.4390    -2.2180    -0.8060 ca         1 9DR       0.333900
     14 CAH          6.3100    -2.3570     1.4520 ca         1 9DR       0.333900
     15 CAI          5.3100    -1.4180    -0.8760 ca         1 9DR      -0.154500
     16 CAJ          5.1750    -1.5630     1.4910 ca         1 9DR      -0.154500
     17 CAK          1.1860     1.4180     0.2660 ca         1 9DR      -0.193000
     18 CAL          2.4170    -0.4240     1.2050 ca         1 9DR      -0.131000
     19 CAM          3.3370     0.8160    -0.6410 ca         1 9DR      -0.132000
     20 CAN         -4.8720    -0.0300     2.1840 c3         1 9DR      -0.135700
     21 CAO          0.1790     0.1470     2.1910 c3         1 9DR       0.062000
     22 NAP          6.9410    -2.6860     0.3310 nb         1 9DR      -0.662000
     23 OAS          2.1890     2.6040    -1.5840 os         1 9DR      -0.342100
     24 CAU          1.2920     0.3820     1.1920 ca         1 9DR      -0.041300
     25 CAW          2.2060     1.6340    -0.6530 ca         1 9DR       0.140100
     26 CAX          4.6490    -1.0680     0.3000 cp         1 9DR       0.005000
     27 CAY          3.4490    -0.2090     0.2870 cp         1 9DR      -0.007000
     28 HAA         -3.8320    -1.9420     2.2080 hc         1 9DR       0.039033
     29 HAAA        -5.0130    -1.7430     3.5020 hc         1 9DR       0.039033
     30 HAAB        -5.5580    -2.0650     1.8570 hc         1 9DR       0.039033
     31 HAB          1.2630     4.1710    -2.4470 h1         1 9DR       0.044033
     32 HABA         0.1440     2.9380    -1.8400 h1         1 9DR       0.044033
     33 HABB         0.9580     4.0390    -0.7050 h1         1 9DR       0.044033
     34 HNAC        -6.5590     1.0000    -3.0540 hn         1 9DR       0.499500
     35 HNAA        -7.5470     0.7470    -1.6680 hn         1 9DR       0.499500
     36 HNAD        -1.2480     0.4900    -1.3060 hn         1 9DR       0.494500
     37 HNAB        -2.0510     0.7670    -2.7940 hn         1 9DR       0.494500
     38 HAG          6.9580    -2.4950    -1.7170 h4         1 9DR       0.019100
     39 HAH          6.7310    -2.7390     2.3760 h4         1 9DR       0.019100
     40 HAI          4.9470    -1.0920    -1.8420 ha         1 9DR       0.125000
     41 HAJ          4.7270    -1.3240     2.4460 ha         1 9DR       0.125000
     42 HAK          0.3030     2.0450     0.2810 ha         1 9DR       0.128000
     43 HAL          2.4820    -1.2410     1.9130 ha         1 9DR       0.119000
     44 HAM          4.1300     1.0080    -1.3530 ha         1 9DR       0.132000
     45 HAN         -4.1160     0.4780     2.7860 hc         1 9DR       0.060700
     46 HANA        -5.8460     0.3610     2.4790 hc         1 9DR       0.060700
     47 HAO          0.2320     0.9020     2.9820 hc         1 9DR       0.065700
     48 HAOA         0.3250    -0.8180     2.6830 hc         1 9DR       0.065700
@<TRIPOS>BOND
     1     1     2 ar  
     2     1     6 ar  
     3     2     3 ar  
     4     2     9 1   
     5     3     4 ar  
     6     4     5 ar  
     7     4    20 1   
     8     5     6 ar  
     9     5    12 1   
    10     6    10 1   
    11     7    20 1   
    12     7    28 1   
    13     7    29 1   
    14     7    30 1   
    15     8    23 1   
    16     8    31 1   
    17     8    32 1   
    18     8    33 1   
    19     9    34 1   
    20     9    35 1   
    21    10    36 1   
    22    10    37 1   
    23    11    12 3   
    24    11    21 1   
    25    13    15 ar  
    26    13    22 ar  
    27    13    38 1   
    28    14    16 ar  
    29    14    22 ar  
    30    14    39 1   
    31    15    26 ar  
    32    15    40 1   
    33    16    26 ar  
    34    16    41 1   
    35    17    24 ar  
    36    17    25 ar  
    37    17    42 1   
    38    18    24 ar  
    39    18    27 ar  
    40    18    43 1   
    41    19    25 ar  
    42    19    27 ar  
    43    19    44 1   
    44    20    45 1   
    45    20    46 1   
    46    21    24 1   
    47    21    47 1   
    48    21    48 1   
    49    23    25 1   
    50    26    27 1   
@<TRIPOS>SUBSTRUCTURE
     1 9DR         1 TEMP              0 ****  ****    0 ROOT
