@<TRIPOS>MOLECULE
9DR
   48    50     1     0     0
SMALL
No Charge or Current Charge


@<TRIPOS>ATOM
      1 N1          -5.6180     0.2390    -0.7190 nb         1 9DR      -0.338000
      2 C2          -5.3800    -1.0740    -0.7050 ca         1 9DR       0.430900
      3 N3          -4.2730    -1.7060    -0.3000 nb         1 9DR      -0.290000
      4 C4          -3.2670    -0.9280     0.1500 ca         1 9DR       0.222300
      5 C5          -3.3970     0.4820     0.1830 ca         1 9DR      -0.220000
      6 C6          -4.6220     1.0090    -0.2730 ca         1 9DR       0.435900
      7 CAA         -0.8900    -1.6810    -0.4550 c3         1 9DR      -0.084100
      8 CAB          3.7570     4.1500    -1.7250 c3         1 9DR       0.145900
      9 NAC         -6.3840    -1.8580    -1.1530 nv         1 9DR      -1.065900
     10 NAD         -4.8900     2.3420    -0.3020 nv         1 9DR      -1.067900
     11 CAE         -1.3870     1.9920     1.0300 c1         1 9DR      -0.166100
     12 CAF         -2.3250     1.3240     0.6460 cg         1 9DR      -0.077000
     13 CAG          3.6200    -3.6000     0.4200 ca         1 9DR       0.333900
     14 CAH          2.7030    -3.3120     2.5240 ca         1 9DR       0.333900
     15 CAI          3.3860    -2.2560     0.0860 ca         1 9DR      -0.154500
     16 CAJ          2.4320    -1.9580     2.2690 ca         1 9DR      -0.154500
     17 CAK          1.9260     2.7590     0.0570 ca         1 9DR      -0.193000
     18 CAL          1.3660     0.7110     1.2400 ca         1 9DR      -0.131000
     19 CAM          3.3390     0.7910    -0.1630 ca         1 9DR      -0.132000
     20 CAN         -2.0080    -1.6680     0.6100 c3         1 9DR      -0.135700
     21 CAO         -0.1880     2.7110     1.4820 c3         1 9DR       0.062000
     22 NAP          3.2880    -4.1290     1.6190 nb         1 9DR      -0.662000
     23 OAS          3.9430     2.7790    -1.3300 os         1 9DR      -0.342100
     24 CAU          1.0680     2.0500     0.9190 ca         1 9DR      -0.041300
     25 CAW          3.0670     2.1300    -0.4830 ca         1 9DR       0.140100
     26 CAX          2.7750    -1.3860     1.0200 cp         1 9DR       0.005000
     27 CAY          2.4960     0.0510     0.7000 cp         1 9DR      -0.007000
     28 HAA         -0.5760    -0.6610    -0.7070 hc         1 9DR       0.039033
     29 HAAA        -0.0140    -2.2260    -0.0850 hc         1 9DR       0.039033
     30 HAAB        -1.2370    -2.1700    -1.3730 hc         1 9DR       0.039033
     31 HAB          4.5650     4.4650    -2.3970 h1         1 9DR       0.044033
     32 HABA         2.8050     4.2790    -2.2550 h1         1 9DR       0.044033
     33 HABB         3.7660     4.8130    -0.8500 h1         1 9DR       0.044033
     34 HNAC        -7.3080    -1.4430    -1.2420 hn         1 9DR       0.499500
     35 HNAA        -6.3490    -2.8520    -0.9430 hn         1 9DR       0.499500
     36 HNAD        -4.1090     2.9830    -0.1910 hn         1 9DR       0.494500
     37 HNAB        -5.6740     2.6640    -0.8630 hn         1 9DR       0.494500
     38 HAG          4.0850    -4.2760    -0.2960 h4         1 9DR       0.019100
     39 HAH          2.4460    -3.7570     3.4840 h4         1 9DR       0.019100
     40 HAI          3.6650    -1.9040    -0.9030 ha         1 9DR       0.125000
     41 HAJ          1.9710    -1.3590     3.0480 ha         1 9DR       0.125000
     42 HAK          1.6900     3.7910    -0.1870 ha         1 9DR       0.128000
     43 HAL          0.6890     0.1650     1.8920 ha         1 9DR       0.119000
     44 HAM          4.2250     0.3260    -0.5860 ha         1 9DR       0.132000
     45 HAN         -1.6190    -1.2220     1.5320 hc         1 9DR       0.060700
     46 HANA        -2.2520    -2.7060     0.8680 hc         1 9DR       0.060700
     47 HAO         -0.2620     3.7600     1.1700 hc         1 9DR       0.065700
     48 HAOA        -0.1600     2.7080     2.5780 hc         1 9DR       0.065700
@<TRIPOS>BOND
     1     1     2 ar  
     2     1     6 ar  
     3     2     3 ar  
     4     2     9 1   
     5     3     4 ar  
     6     4     5 ar  
     7     4    20 1   
     8     5     6 ar  
     9     5    12 1   
    10     6    10 1   
    11     7    20 1   
    12     7    28 1   
    13     7    29 1   
    14     7    30 1   
    15     8    23 1   
    16     8    31 1   
    17     8    32 1   
    18     8    33 1   
    19     9    34 1   
    20     9    35 1   
    21    10    36 1   
    22    10    37 1   
    23    11    12 3   
    24    11    21 1   
    25    13    15 ar  
    26    13    22 ar  
    27    13    38 1   
    28    14    16 ar  
    29    14    22 ar  
    30    14    39 1   
    31    15    26 ar  
    32    15    40 1   
    33    16    26 ar  
    34    16    41 1   
    35    17    24 ar  
    36    17    25 ar  
    37    17    42 1   
    38    18    24 ar  
    39    18    27 ar  
    40    18    43 1   
    41    19    25 ar  
    42    19    27 ar  
    43    19    44 1   
    44    20    45 1   
    45    20    46 1   
    46    21    24 1   
    47    21    47 1   
    48    21    48 1   
    49    23    25 1   
    50    26    27 1   
@<TRIPOS>SUBSTRUCTURE
     1 9DR         1 TEMP              0 ****  ****    0 ROOT
