@<TRIPOS>MOLECULE
9DS
   39    40     1     0     0
SMALL
bcc


@<TRIPOS>ATOM
      1 N           55.5650    33.2720    76.4520 n3         1 9DS      -0.732500
      2 CA          54.5900    33.4650    77.5160 c3         1 9DS       0.055800
      3 C           54.0720    32.1920    78.2170 c          1 9DS       0.916600
      4 O           54.3450    31.1020    77.6890 o          1 9DS      -0.824300
      5 OXT         53.4040    32.4060    79.2460 o          1 9DS      -0.824300
      6 C6          56.9190    32.9470    76.8710 c3         1 9DS       0.202100
      7 S8          55.0760    32.5720    75.0440 sy         1 9DS       1.317200
      8 O9          55.6190    31.2320    74.8650 o          1 9DS      -0.613300
      9 O10         53.6360    32.7570    74.9270 o          1 9DS      -0.613300
     10 C11         55.8870    33.5970    73.8240 ca         1 9DS      -0.246500
     11 C12         56.7500    32.9670    72.9670 ca         1 9DS      -0.033000
     12 C13         57.4000    33.6920    71.9550 ca         1 9DS      -0.167000
     13 C14         57.2140    35.0410    71.8550 ca         1 9DS      -0.075000
     14 C15         56.3670    35.7330    72.7510 ca         1 9DS      -0.062000
     15 C16         55.6340    34.9990    73.7270 ca         1 9DS       0.062000
     16 C17         54.6900    35.6910    74.5220 ca         1 9DS      -0.115000
     17 C18         54.5020    37.0340    74.3520 ca         1 9DS      -0.111000
     18 C19         55.2640    37.7730    73.4330 ca         1 9DS      -0.183000
     19 C20         56.2080    37.1530    72.6510 ca         1 9DS       0.121600
     20 N21         57.0090    37.8500    71.7330 nh         1 9DS      -0.638000
     21 C23         56.4800    39.1000    71.2330 c3         1 9DS       0.174100
     22 C22         58.4050    37.9870    72.1260 c3         1 9DS       0.174100
     23 HA          53.7350    34.0280    77.1350 h1         1 9DS       0.044200
     24 HA2         55.0680    34.1220    78.2460 h1         1 9DS       0.044200
     25 H61C        57.6110    32.9970    76.0300 h1         1 9DS       0.036033
     26 H62C        57.2360    33.6970    77.5930 h1         1 9DS       0.036033
     27 H63C        56.9930    31.9610    77.3320 h1         1 9DS       0.036033
     28 H12         56.9300    31.9050    73.0520 ha         1 9DS       0.161000
     29 H13         58.0430    33.1730    71.2580 ha         1 9DS       0.124000
     30 H14         57.7000    35.5920    71.0630 ha         1 9DS       0.134000
     31 H17         54.0870    35.1750    75.2510 ha         1 9DS       0.167000
     32 H18         53.7650    37.5480    74.9560 ha         1 9DS       0.129000
     33 H19         55.1080    38.8420    73.3660 ha         1 9DS       0.122000
     34 H221        59.0000    38.2870    71.2630 h1         1 9DS       0.030200
     35 H222        58.5380    38.7450    72.9100 h1         1 9DS       0.030200
     36 H223        58.8080    37.0480    72.4990 h1         1 9DS       0.030200
     37 H231        56.5060    39.9180    71.9660 h1         1 9DS       0.030200
     38 H232        57.0740    39.4140    70.3740 h1         1 9DS       0.030200
     39 H233        55.4510    38.9720    70.8990 h1         1 9DS       0.030200
@<TRIPOS>BOND
     1     1     2 1   
     2     1     6 1   
     3     1     7 1   
     4     2     3 1   
     5     2    23 1   
     6     2    24 1   
     7     3     4 1   
     8     3     5 1   
     9     6    25 1   
    10     6    26 1   
    11     6    27 1   
    12     7     8 2   
    13     7     9 2   
    14     7    10 1   
    15    10    11 ar  
    16    10    15 ar  
    17    11    12 ar  
    18    11    28 1   
    19    12    13 ar  
    20    12    29 1   
    21    13    14 ar  
    22    13    30 1   
    23    14    15 ar  
    24    14    19 ar  
    25    15    16 ar  
    26    16    17 ar  
    27    16    31 1   
    28    17    18 ar  
    29    17    32 1   
    30    18    19 ar  
    31    18    33 1   
    32    19    20 1   
    33    20    21 1   
    34    20    22 1   
    35    21    37 1   
    36    21    38 1   
    37    21    39 1   
    38    22    34 1   
    39    22    35 1   
    40    22    36 1   
@<TRIPOS>SUBSTRUCTURE
     1 9DS         1 TEMP              0 ****  ****    0 ROOT
