@<TRIPOS>MOLECULE
9DS
   39    40     1     0     0
SMALL
No Charge or Current Charge


@<TRIPOS>ATOM
      1 N           55.2360    33.4000    76.6060 n3         1 9DS      -0.732500
      2 CA          54.4700    32.9150    77.8040 c3         1 9DS       0.055800
      3 C           54.4620    31.3810    78.1380 c          1 9DS       0.706000
      4 O           55.4610    30.8890    78.6500 o          1 9DS      -0.719000
      5 OXT         53.4330    30.7460    77.9410 o          1 9DS      -0.719000
      6 C6          56.7010    33.3130    76.7700 c3         1 9DS       0.202100
      7 S8          54.6660    32.8140    75.1050 sy         1 9DS       1.175600
      8 O9          55.0200    31.3910    75.0260 o          1 9DS      -0.542500
      9 O10         53.2720    33.2630    74.9990 o          1 9DS      -0.542500
     10 C11         55.6340    33.7660    73.8980 ca         1 9DS      -0.246500
     11 C12         56.4510    33.0330    73.0100 ca         1 9DS      -0.015000
     12 C13         57.2160    33.6880    72.0400 ca         1 9DS      -0.149000
     13 C14         57.1850    35.0820    71.9420 ca         1 9DS      -0.057000
     14 C15         56.3920    35.8510    72.8230 ca         1 9DS      -0.062000
     15 C16         55.6010    35.1920    73.8090 ca         1 9DS       0.062000
     16 C17         54.8090    35.9840    74.6770 ca         1 9DS      -0.097000
     17 C18         54.7890    37.3810    74.5640 ca         1 9DS      -0.093000
     18 C19         55.5640    38.0170    73.5910 ca         1 9DS      -0.165000
     19 C20         56.3740    37.2700    72.7210 ca         1 9DS       0.260000
     20 N21         57.1590    37.9740    71.7740 nh         1 9DS      -0.776400
     21 C23         56.5270    38.9180    70.8300 c3         1 9DS       0.174100
     22 C22         58.6180    38.0980    71.9670 c3         1 9DS       0.174100
     23 HA          53.4200    33.2200    77.7060 h1         1 9DS       0.044200
     24 HA2         54.8440    33.4240    78.7010 h1         1 9DS       0.044200
     25 H61C        57.2260    33.8640    75.9790 h1         1 9DS       0.036033
     26 H62C        57.0080    33.7490    77.7300 h1         1 9DS       0.036033
     27 H63C        57.0420    32.2690    76.7450 h1         1 9DS       0.036033
     28 H12         56.4950    31.9460    73.0590 ha         1 9DS       0.143000
     29 H13         57.8340    33.1100    71.3570 ha         1 9DS       0.106000
     30 H14         57.7830    35.5580    71.1690 ha         1 9DS       0.116000
     31 H17         54.1970    35.5460    75.4570 ha         1 9DS       0.149000
     32 H18         54.1730    37.9700    75.2400 ha         1 9DS       0.111000
     33 H19         55.5490    39.1010    73.5220 ha         1 9DS       0.104000
     34 H221        59.1480    37.8660    71.0340 h1         1 9DS       0.030200
     35 H222        58.8800    39.1170    72.2820 h1         1 9DS       0.030200
     36 H223        58.9670    37.3980    72.7390 h1         1 9DS       0.030200
     37 H231        56.5280    39.9360    71.2430 h1         1 9DS       0.030200
     38 H232        57.0680    38.9240    69.8740 h1         1 9DS       0.030200
     39 H233        55.4890    38.6220    70.6280 h1         1 9DS       0.030200
@<TRIPOS>BOND
     1     1     2 1   
     2     1     6 1   
     3     1     7 1   
     4     2     3 1   
     5     2    23 1   
     6     2    24 1   
     7     3     4 1   
     8     3     5 1   
     9     6    25 1   
    10     6    26 1   
    11     6    27 1   
    12     7     8 2   
    13     7     9 2   
    14     7    10 1   
    15    10    11 ar  
    16    10    15 ar  
    17    11    12 ar  
    18    11    28 1   
    19    12    13 ar  
    20    12    29 1   
    21    13    14 ar  
    22    13    30 1   
    23    14    15 ar  
    24    14    19 ar  
    25    15    16 ar  
    26    16    17 ar  
    27    16    31 1   
    28    17    18 ar  
    29    17    32 1   
    30    18    19 ar  
    31    18    33 1   
    32    19    20 1   
    33    20    21 1   
    34    20    22 1   
    35    21    37 1   
    36    21    38 1   
    37    21    39 1   
    38    22    34 1   
    39    22    35 1   
    40    22    36 1   
@<TRIPOS>SUBSTRUCTURE
     1 9DS         1 TEMP              0 ****  ****    0 ROOT
