@<TRIPOS>MOLECULE
9DT
   25    25     1     0     0
SMALL
No Charge or Current Charge


@<TRIPOS>ATOM
      1 C36          2.9260    -0.1820    -0.2450 c          1 9DT       0.695000
      2 C38          1.4560    -0.2620     0.3770 c3         1 9DT       0.038200
      3 C39          1.2900    -1.6090     1.1370 c3         1 9DT      -0.062100
      4 C40          0.4460    -0.1670    -0.8130 c3         1 9DT      -0.013100
      5 C41         -1.0380    -0.1940    -0.4260 ca         1 9DT      -0.060300
      6 C42         -1.7250    -1.4260    -0.3710 ca         1 9DT      -0.095000
      7 C43         -3.0890    -1.4690    -0.0330 ca         1 9DT      -0.140000
      8 C44         -3.7860    -0.2820     0.2460 ca         1 9DT      -0.114000
      9 C45         -3.1150     0.9510     0.1850 ca         1 9DT      -0.167000
     10 C46         -1.7520     0.9950    -0.1510 ca         1 9DT       0.183000
     11 F47         -1.1330     2.1970    -0.2110 f          1 9DT      -0.181000
     12 N48          1.1590     0.8410     1.3610 n8         1 9DT      -0.998200
     13 O37          3.3710    -1.1440    -0.8600 o          1 9DT      -0.729500
     14 H2           2.0730    -1.7220     1.8970 hc         1 9DT       0.020700
     15 H3           0.3190    -1.6680     1.6430 hc         1 9DT       0.020700
     16 H4           1.3620    -2.4610     0.4500 hc         1 9DT       0.020700
     17 H5           0.6620     0.7440    -1.3860 hc         1 9DT       0.057700
     18 H6           0.6490    -0.9890    -1.5100 hc         1 9DT       0.057700
     19 H7          -1.1990    -2.3530    -0.5880 ha         1 9DT       0.115000
     20 H8          -3.6070    -2.4240     0.0100 ha         1 9DT       0.098000
     21 H9          -4.8420    -0.3170     0.5060 ha         1 9DT       0.095000
     22 H10         -3.6500     1.8730     0.3960 ha         1 9DT       0.112000
     23 H11          1.9980     1.4350     1.3960 hn         1 9DT       0.387500
     24 H12          0.4500     1.4590     0.9510 hn         1 9DT       0.387500
     25 OXT          3.5870     0.8300    -0.0370 o          1 9DT      -0.729500
@<TRIPOS>BOND
     1     1     2 1   
     2     1    13 1   
     3     1    25 1   
     4     2     3 1   
     5     2     4 1   
     6     2    12 1   
     7     3    14 1   
     8     3    15 1   
     9     3    16 1   
    10     4     5 1   
    11     4    17 1   
    12     4    18 1   
    13     5     6 ar  
    14     5    10 ar  
    15     6     7 ar  
    16     6    19 1   
    17     7     8 ar  
    18     7    20 1   
    19     8     9 ar  
    20     8    21 1   
    21     9    10 ar  
    22     9    22 1   
    23    10    11 1   
    24    12    23 1   
    25    12    24 1   
@<TRIPOS>SUBSTRUCTURE
     1 9DT         1 TEMP              0 ****  ****    0 ROOT
