@<TRIPOS>MOLECULE
9DT
   25    25     1     0     0
SMALL
bcc


@<TRIPOS>ATOM
      1 C36          2.8380    -0.1550    -0.2690 c          1 9DT       0.905600
      2 C38          1.3960    -0.1910     0.3230 c3         1 9DT       0.038200
      3 C39          1.2380    -1.4860     1.1210 c3         1 9DT      -0.062100
      4 C40          0.4100    -0.1550    -0.8660 c3         1 9DT      -0.013100
      5 C41         -1.0370    -0.2120    -0.4720 ca         1 9DT      -0.060300
      6 C42         -1.7060    -1.4310    -0.3580 ca         1 9DT      -0.113000
      7 C43         -3.0380    -1.5070     0.0240 ca         1 9DT      -0.158000
      8 C44         -3.7450    -0.3440     0.2950 ca         1 9DT      -0.132000
      9 C45         -3.1150     0.8870     0.1740 ca         1 9DT      -0.185000
     10 C46         -1.7860     0.9250    -0.2030 ca         1 9DT       0.147900
     11 F47         -1.2120     2.1340    -0.3410 f          1 9DT      -0.145900
     12 N48          1.0910     0.9160     1.2170 n8         1 9DT      -0.887800
     13 O37          3.1290    -1.0640    -1.0750 o          1 9DT      -0.834800
     14 H2           1.9920    -1.5470     1.9110 hc         1 9DT       0.020700
     15 H3           0.2590    -1.5310     1.5990 hc         1 9DT       0.020700
     16 H4           1.3490    -2.3640     0.4870 hc         1 9DT       0.020700
     17 H5           0.6020     0.7440    -1.4580 hc         1 9DT       0.057700
     18 H6           0.6290    -1.0010    -1.5180 hc         1 9DT       0.057700
     19 H7          -1.1640    -2.3420    -0.5820 ha         1 9DT       0.133000
     20 H8          -3.5220    -2.4710     0.1060 ha         1 9DT       0.116000
     21 H9          -4.7850    -0.3880     0.5890 ha         1 9DT       0.113000
     22 H10         -3.6490     1.8100     0.3670 ha         1 9DT       0.130000
     23 H11          1.7340     0.8830     2.0000 hn         1 9DT       0.332300
     24 H12          1.3100     1.7870     0.7480 hn         1 9DT       0.332300
     25 OXT          3.5950     0.7620     0.1060 o          1 9DT      -0.834800
@<TRIPOS>BOND
     1     1     2 1   
     2     1    13 1   
     3     1    25 1   
     4     2     3 1   
     5     2     4 1   
     6     2    12 1   
     7     3    14 1   
     8     3    15 1   
     9     3    16 1   
    10     4     5 1   
    11     4    17 1   
    12     4    18 1   
    13     5     6 ar  
    14     5    10 ar  
    15     6     7 ar  
    16     6    19 1   
    17     7     8 ar  
    18     7    20 1   
    19     8     9 ar  
    20     8    21 1   
    21     9    10 ar  
    22     9    22 1   
    23    10    11 1   
    24    12    23 1   
    25    12    24 1   
@<TRIPOS>SUBSTRUCTURE
     1 9DT         1 TEMP              0 ****  ****    0 ROOT
