@<TRIPOS>MOLECULE
9DU
   29    29     1     0     0
SMALL
No Charge or Current Charge


@<TRIPOS>ATOM
      1 CAJ         -3.0150    -0.7650    -1.1120 ca         1 9DU      -0.095000
      2 CAK         -4.1740    -0.1910    -1.6650 ca         1 9DU      -0.113000
      3 CAL         -4.9100     0.7540    -0.9310 ca         1 9DU      -0.100000
      4 CAN         -4.4870     1.1260     0.3560 ca         1 9DU      -0.113000
      5 CAM         -3.3280     0.5530     0.9100 ca         1 9DU      -0.095000
      6 CAI         -2.5880    -0.3970     0.1790 ca         1 9DU      -0.118300
      7 CAH         -1.3320    -1.0130     0.7750 c3         1 9DU       0.151300
      8 NAG         -0.1530    -0.2200     0.4420 ns         1 9DU      -0.505900
      9 CAD          1.1260    -0.5280     0.8410 c          1 9DU       0.594100
     10 OAE          1.3700    -1.5160     1.5190 o          1 9DU      -0.606100
     11 CAC          2.2160     0.4530     0.3730 c3         1 9DU      -0.126700
     12 CAF          2.8910     1.1480     1.5820 c3         1 9DU      -0.085100
     13 CAB          3.2230    -0.2810    -0.5410 c3         1 9DU       0.095600
     14 SAA          4.4450     0.8440    -1.3700 sh         1 9DU      -0.464800
     15 H1          -2.4490    -1.4940    -1.6880 ha         1 9DU       0.116000
     16 H2          -4.5000    -0.4790    -2.6620 ha         1 9DU       0.115000
     17 H3          -5.8060     1.1980    -1.3590 ha         1 9DU       0.115000
     18 H4          -5.0550     1.8590     0.9250 ha         1 9DU       0.115000
     19 H5          -3.0060     0.8480     1.9060 ha         1 9DU       0.116000
     20 H6          -1.4280    -1.0720     1.8680 h1         1 9DU       0.058700
     21 H7          -1.1980    -2.0330     0.3900 h1         1 9DU       0.058700
     22 H8          -0.2790     0.6160    -0.1150 hn         1 9DU       0.319500
     23 H9           1.7340     1.2340    -0.2280 hc         1 9DU       0.061700
     24 H10          3.4290     0.4210     2.2030 hc         1 9DU       0.049033
     25 H11          3.6060     1.9110     1.2510 hc         1 9DU       0.049033
     26 H12          2.1400     1.6430     2.2100 hc         1 9DU       0.049033
     27 H13          3.7770    -1.0270     0.0450 h1         1 9DU       0.071200
     28 H14          2.6740    -0.8160    -1.3270 h1         1 9DU       0.071200
     29 H15          5.1100    -0.1290    -2.0430 hs         1 9DU       0.215800
@<TRIPOS>BOND
     1     1     2 ar  
     2     1     6 ar  
     3     1    15 1   
     4     2     3 ar  
     5     2    16 1   
     6     3     4 ar  
     7     3    17 1   
     8     4     5 ar  
     9     4    18 1   
    10     5     6 ar  
    11     5    19 1   
    12     6     7 1   
    13     7     8 1   
    14     7    20 1   
    15     7    21 1   
    16     8     9 1   
    17     8    22 1   
    18     9    10 2   
    19     9    11 1   
    20    11    12 1   
    21    11    13 1   
    22    11    23 1   
    23    12    24 1   
    24    12    25 1   
    25    12    26 1   
    26    13    14 1   
    27    13    27 1   
    28    13    28 1   
    29    14    29 1   
@<TRIPOS>SUBSTRUCTURE
     1 9DU         1 TEMP              0 ****  ****    0 ROOT
