@<TRIPOS>MOLECULE
9DU
   29    29     1     0     0
SMALL
abcg2


@<TRIPOS>ATOM
      1 CAJ         -2.8860    -0.6870    -1.0630 ca         1 9DU      -0.095000
      2 CAK         -4.0180    -0.1550    -1.6640 ca         1 9DU      -0.113000
      3 CAL         -4.8390     0.7150    -0.9570 ca         1 9DU      -0.100000
      4 CAN         -4.5230     1.0480     0.3530 ca         1 9DU      -0.113000
      5 CAM         -3.3890     0.5140     0.9520 ca         1 9DU      -0.095000
      6 CAI         -2.5620    -0.3590     0.2520 ca         1 9DU      -0.118300
      7 CAH         -1.3180    -0.9120     0.8890 c3         1 9DU       0.151300
      8 NAG         -0.1610    -0.1450     0.4660 ns         1 9DU      -0.505900
      9 CAD          1.0950    -0.5180     0.7480 c          1 9DU       0.594100
     10 OAE          1.3560    -1.5510     1.3500 o          1 9DU      -0.606100
     11 CAC          2.1820     0.4400     0.2870 c3         1 9DU      -0.126700
     12 CAF          2.8360     1.0800     1.5110 c3         1 9DU      -0.085100
     13 CAB          3.1740    -0.3350    -0.5790 c3         1 9DU       0.095600
     14 SAA          4.3980     0.8170    -1.2910 sh         1 9DU      -0.464800
     15 H1          -2.2520    -1.3680    -1.6180 ha         1 9DU       0.116000
     16 H2          -4.2600    -0.4210    -2.6850 ha         1 9DU       0.115000
     17 H3          -5.7220     1.1290    -1.4250 ha         1 9DU       0.115000
     18 H4          -5.1580     1.7230     0.9110 ha         1 9DU       0.115000
     19 H5          -3.1460     0.7760     1.9750 ha         1 9DU       0.116000
     20 H6          -1.4110    -0.8870     1.9780 h1         1 9DU       0.058700
     21 H7          -1.1790    -1.9570     0.6050 h1         1 9DU       0.058700
     22 H8          -0.3190     0.7340    -0.0010 hn         1 9DU       0.319500
     23 H9           1.7330     1.2290    -0.3250 hc         1 9DU       0.061700
     24 H10          3.3380     0.3310     2.1230 hc         1 9DU       0.049033
     25 H11          3.5740     1.8260     1.2190 hc         1 9DU       0.049033
     26 H12          2.0930     1.5830     2.1310 hc         1 9DU       0.049033
     27 H13          3.6870    -1.0900     0.0160 h1         1 9DU       0.071200
     28 H14          2.6510    -0.8340    -1.3950 h1         1 9DU       0.071200
     29 H15          5.0580    -0.0800    -2.0300 hs         1 9DU       0.215800
@<TRIPOS>BOND
     1     1     2 ar  
     2     1     6 ar  
     3     1    15 1   
     4     2     3 ar  
     5     2    16 1   
     6     3     4 ar  
     7     3    17 1   
     8     4     5 ar  
     9     4    18 1   
    10     5     6 ar  
    11     5    19 1   
    12     6     7 1   
    13     7     8 1   
    14     7    20 1   
    15     7    21 1   
    16     8     9 1   
    17     8    22 1   
    18     9    10 2   
    19     9    11 1   
    20    11    12 1   
    21    11    13 1   
    22    11    23 1   
    23    12    24 1   
    24    12    25 1   
    25    12    26 1   
    26    13    14 1   
    27    13    27 1   
    28    13    28 1   
    29    14    29 1   
@<TRIPOS>SUBSTRUCTURE
     1 9DU         1 TEMP              0 ****  ****    0 ROOT
