@<TRIPOS>MOLECULE
9DW
   42    43     1     0     0
SMALL
No Charge or Current Charge


@<TRIPOS>ATOM
      1 C01         -1.3120    -2.5130     1.4350 c3         1 9DW      -0.085100
      2 C02         -1.8900    -2.2900     0.0250 c3         1 9DW      -0.033100
      3 C05         -4.9280     0.0390    -0.0890 ca         1 9DW       0.128100
      4 C07         -2.9340     1.4280    -0.1950 ca         1 9DW      -0.068000
      5 C08         -2.1000     0.2850    -0.1610 cp         1 9DW      -0.047000
      6 C09         -0.6200     0.4740    -0.1950 cp         1 9DW      -0.068000
      7 C11          1.4320     1.3460     0.8280 ca         1 9DW      -0.119500
      8 C12          2.1950     0.8720    -0.2570 ca         1 9DW      -0.041300
      9 C13          1.5460     0.2120    -1.3170 ca         1 9DW      -0.119500
     10 C14          0.1540     0.0190    -1.2880 ca         1 9DW      -0.103000
     11 C15          3.7070     1.0860    -0.2950 c3         1 9DW      -0.073100
     12 C03         -2.7080    -1.0010    -0.0750 ca         1 9DW      -0.025300
     13 C04         -4.1140    -1.1030    -0.0420 ca         1 9DW      -0.152000
     14 C06         -4.3320     1.3130    -0.1640 ca         1 9DW      -0.205000
     15 C10          0.0400     1.1510     0.8550 ca         1 9DW      -0.103000
     16 C16          4.5270    -0.2210    -0.1310 c3         1 9DW       0.027500
     17 C88          6.0740     0.0550    -0.3520 c          1 9DW       0.723000
     18 CA7         -7.2160     0.9640    -0.0930 c3         1 9DW       0.152900
     19 N17          4.1390    -0.9170     1.1500 n8         1 9DW      -0.993200
     20 O89          6.6780     0.7130     0.4870 o          1 9DW      -0.729000
     21 H1          -0.7540    -3.4560     1.4760 hc         1 9DW       0.036700
     22 H2          -0.6300    -1.7000     1.7110 hc         1 9DW       0.036700
     23 H3          -2.1160    -2.5560     2.1790 hc         1 9DW       0.036700
     24 H4          -1.0720    -2.2930    -0.7030 hc         1 9DW       0.048700
     25 H5          -2.5120    -3.1560    -0.2350 hc         1 9DW       0.048700
     26 H6          -2.4820     2.4150    -0.2540 ha         1 9DW       0.115000
     27 H7           1.9160     1.8650     1.6520 ha         1 9DW       0.116500
     28 H8           2.1200    -0.1480    -2.1680 ha         1 9DW       0.116500
     29 H9          -0.3330    -0.4830    -2.1210 ha         1 9DW       0.101500
     30 H10          3.9790     1.5480    -1.2520 hc         1 9DW       0.056200
     31 H11          4.0130     1.8020     0.4780 hc         1 9DW       0.056200
     32 H12         -4.5860    -2.0790     0.0300 ha         1 9DW       0.119000
     33 H13         -4.9310     2.2180    -0.1980 ha         1 9DW       0.109000
     34 H14         -0.5350     1.5210     1.7010 ha         1 9DW       0.101500
     35 H15          4.2220    -0.8890    -0.9490 h1         1 9DW       0.046700
     36 H17         -7.0590     1.6340     0.7620 h1         1 9DW       0.034700
     37 H18         -7.0930     1.5400    -1.0190 h1         1 9DW       0.034700
     38 H19         -8.2500     0.5990    -0.0540 h1         1 9DW       0.034700
     39 H20          4.4830    -0.3600     1.9410 hn         1 9DW       0.381000
     40 H21          3.1180    -0.8730     1.2440 hn         1 9DW       0.381000
     41 OXT          6.6230    -0.4570    -1.3200 o          1 9DW      -0.729000
     42 OA6         -6.2960    -0.1410    -0.0520 os         1 9DW      -0.348100
@<TRIPOS>BOND
     1     1     2 1   
     2     1    21 1   
     3     1    22 1   
     4     1    23 1   
     5     2    12 1   
     6     2    24 1   
     7     2    25 1   
     8     3    13 ar  
     9     3    14 ar  
    10     3    42 1   
    11     4     5 ar  
    12     4    14 ar  
    13     4    26 1   
    14     5     6 1   
    15     5    12 ar  
    16     6    10 ar  
    17     6    15 ar  
    18     7     8 ar  
    19     7    15 ar  
    20     7    27 1   
    21     8     9 ar  
    22     8    11 1   
    23     9    10 ar  
    24     9    28 1   
    25    10    29 1   
    26    11    16 1   
    27    11    30 1   
    28    11    31 1   
    29    12    13 ar  
    30    13    32 1   
    31    14    33 1   
    32    15    34 1   
    33    16    17 1   
    34    16    19 1   
    35    16    35 1   
    36    17    20 1   
    37    17    41 1   
    38    18    36 1   
    39    18    37 1   
    40    18    38 1   
    41    18    42 1   
    42    19    39 1   
    43    19    40 1   
@<TRIPOS>SUBSTRUCTURE
     1 9DW         1 TEMP              0 ****  ****    0 ROOT
