@<TRIPOS>MOLECULE
9DW
   42    43     1     0     0
SMALL
bcc


@<TRIPOS>ATOM
      1 C01         -1.3320    -2.4480     1.4460 c3         1 9DW      -0.085100
      2 C02         -1.8380    -2.2310     0.0210 c3         1 9DW      -0.033100
      3 C05         -4.8760     0.0360    -0.0710 ca         1 9DW       0.128100
      4 C07         -2.9170     1.4090    -0.1870 ca         1 9DW      -0.086000
      5 C08         -2.0840     0.2970    -0.1750 cp         1 9DW      -0.047000
      6 C09         -0.6160     0.4920    -0.2380 cp         1 9DW      -0.068000
      7 C11          1.4410     1.3050     0.7430 ca         1 9DW      -0.137500
      8 C12          2.1770     0.8940    -0.3650 ca         1 9DW      -0.041300
      9 C13          1.4880     0.2850    -1.4150 ca         1 9DW      -0.137500
     10 C14          0.1180     0.0890    -1.3550 ca         1 9DW      -0.121000
     11 C15          3.6690     1.0390    -0.4150 c3         1 9DW      -0.073100
     12 C03         -2.6670    -0.9790    -0.0960 ca         1 9DW      -0.025300
     13 C04         -4.0490    -1.0880    -0.0460 ca         1 9DW      -0.170000
     14 C06         -4.3020     1.3000    -0.1380 ca         1 9DW      -0.223000
     15 C10          0.0670     1.1110     0.8050 ca         1 9DW      -0.121000
     16 C16          4.3980    -0.2820    -0.0680 c3         1 9DW       0.027500
     17 C88          5.9170    -0.0250    -0.1890 c          1 9DW       0.933600
     18 CA7         -7.0840     0.9030    -0.0590 c3         1 9DW       0.129700
     19 N17          4.0650    -0.8290     1.2320 n8         1 9DW      -0.882800
     20 O89          6.5490     0.1620     0.8690 o          1 9DW      -0.834300
     21 H1          -0.7520    -3.3700     1.5140 hc         1 9DW       0.036700
     22 H2          -0.6890    -1.6270     1.7660 hc         1 9DW       0.036700
     23 H3          -2.1610    -2.5200     2.1520 hc         1 9DW       0.036700
     24 H4          -0.9850    -2.1990    -0.6580 hc         1 9DW       0.048700
     25 H5          -2.4400    -3.0890    -0.2830 hc         1 9DW       0.048700
     26 H6          -2.4780     2.3980    -0.2510 ha         1 9DW       0.133000
     27 H7           1.9480     1.7870     1.5700 ha         1 9DW       0.134500
     28 H8           2.0310    -0.0380    -2.2950 ha         1 9DW       0.134500
     29 H9          -0.3930    -0.3710    -2.1920 ha         1 9DW       0.119500
     30 H10          3.9770     1.3550    -1.4140 hc         1 9DW       0.056200
     31 H11          3.9910     1.8160     0.2850 hc         1 9DW       0.056200
     32 H12         -4.5040    -2.0700     0.0220 ha         1 9DW       0.137000
     33 H13         -4.9030     2.1990    -0.1600 ha         1 9DW       0.127000
     34 H14         -0.4790     1.4370     1.6820 ha         1 9DW       0.119500
     35 H15          4.1190    -1.0140    -0.8340 h1         1 9DW       0.046700
     36 H17         -6.9330     1.5770     0.7890 h1         1 9DW       0.034700
     37 H18         -6.9860     1.4770    -0.9840 h1         1 9DW       0.034700
     38 H19         -8.0910     0.4960    -0.0060 h1         1 9DW       0.034700
     39 H20          4.5270    -0.2770     1.9430 hn         1 9DW       0.325800
     40 H21          3.0690    -0.7620     1.4030 hn         1 9DW       0.325800
     41 OXT          6.3740     0.0180    -1.3480 o          1 9DW      -0.834300
     42 OA6         -6.2020    -0.2000    -0.0240 os         1 9DW      -0.324900
@<TRIPOS>BOND
     1     1     2 1   
     2     1    21 1   
     3     1    22 1   
     4     1    23 1   
     5     2    12 1   
     6     2    24 1   
     7     2    25 1   
     8     3    13 ar  
     9     3    14 ar  
    10     3    42 1   
    11     4     5 ar  
    12     4    14 ar  
    13     4    26 1   
    14     5     6 1   
    15     5    12 ar  
    16     6    10 ar  
    17     6    15 ar  
    18     7     8 ar  
    19     7    15 ar  
    20     7    27 1   
    21     8     9 ar  
    22     8    11 1   
    23     9    10 ar  
    24     9    28 1   
    25    10    29 1   
    26    11    16 1   
    27    11    30 1   
    28    11    31 1   
    29    12    13 ar  
    30    13    32 1   
    31    14    33 1   
    32    15    34 1   
    33    16    17 1   
    34    16    19 1   
    35    16    35 1   
    36    17    20 1   
    37    17    41 1   
    38    18    36 1   
    39    18    37 1   
    40    18    38 1   
    41    18    42 1   
    42    19    39 1   
    43    19    40 1   
@<TRIPOS>SUBSTRUCTURE
     1 9DW         1 TEMP              0 ****  ****    0 ROOT
