@<TRIPOS>MOLECULE
9DX
   34    35     1     0     0
SMALL
No Charge or Current Charge


@<TRIPOS>ATOM
      1 OAC         -0.0130     1.9610     1.8830 o          1 9DX      -0.732500
      2 CAN         -0.4500     1.9980     0.7380 c          1 9DX       0.737000
      3 OAE         -1.1290     2.9470     0.3600 o          1 9DX      -0.732500
      4 CAS         -0.1750     0.7990    -0.2730 c5         1 9DX       0.034000
      5 CB          -1.5180     0.1980    -0.8170 c3         1 9DX      -0.074400
      6 CA          -2.5330    -0.3150     0.2450 c3         1 9DX       0.038500
      7 N           -1.9390    -1.4690     1.0080 n8         1 9DX      -0.991200
      8 C           -3.9590    -0.5580    -0.4070 c          1 9DX       0.718000
      9 O           -4.0980    -1.4930    -1.1870 o          1 9DX      -0.762500
     10 OXT         -4.8930     0.1490    -0.0490 o          1 9DX      -0.762500
     11 OAL          0.6190    -0.2670     0.3450 os         1 9DX      -0.419000
     12 CAR          1.4890    -0.8140    -0.6720 c5         1 9DX       0.156300
     13 CAP          2.6320    -1.7060    -0.0950 c6         1 9DX       0.176300
     14 OAF          2.1350    -2.8550     0.6060 oh         1 9DX      -0.684000
     15 CAH          3.5600    -0.8720     0.8090 c6         1 9DX      -0.150400
     16 CAG          4.0630     0.3850     0.0620 c6         1 9DX       0.176600
     17 OAK          2.9670     1.1560    -0.4770 os         1 9DX      -0.412000
     18 CAQ          2.0270     0.4710    -1.3570 c5         1 9DX       0.129300
     19 CAJ          0.7420     1.3410    -1.4430 c5         1 9DX      -0.085400
     20 HB          -2.0260     0.9710    -1.4060 hc         1 9DX       0.030700
     21 HBA         -1.3100    -0.6120    -1.5270 hc         1 9DX       0.030700
     22 HA          -2.6790     0.5020     0.9660 h1         1 9DX       0.069700
     23 HN          -1.9480    -2.2930     0.3970 hn         1 9DX       0.384000
     24 HNA         -0.9330    -1.2670     1.1080 hn         1 9DX       0.384000
     25 HAR          0.8900    -1.4100    -1.3730 h1         1 9DX       0.018700
     26 HAP          3.2330    -2.0550    -0.9470 h1         1 9DX      -0.015300
     27 HOAF         2.9210    -3.3770     0.8800 ho         1 9DX       0.468000
     28 HAH          3.0260    -0.5650     1.7190 hc         1 9DX       0.067200
     29 HAHA         4.4190    -1.4730     1.1340 hc         1 9DX       0.067200
     30 HAG          4.6450     1.0220     0.7440 h1         1 9DX       0.012700
     31 HAGA         4.7200     0.0860    -0.7670 h1         1 9DX       0.012700
     32 HAQ          2.5010     0.2850    -2.3300 h1         1 9DX       0.004700
     33 HAJ          0.2610     1.2160    -2.4200 hc         1 9DX       0.052200
     34 HAJA         0.9700     2.4090    -1.3500 hc         1 9DX       0.052200
@<TRIPOS>BOND
     1     1     2 1   
     2     2     3 1   
     3     2     4 1   
     4     4     5 1   
     5     4    11 1   
     6     4    19 1   
     7     5     6 1   
     8     5    20 1   
     9     5    21 1   
    10     6     7 1   
    11     6     8 1   
    12     6    22 1   
    13     7    23 1   
    14     7    24 1   
    15     8     9 1   
    16     8    10 1   
    17    11    12 1   
    18    12    13 1   
    19    12    18 1   
    20    12    25 1   
    21    13    14 1   
    22    13    15 1   
    23    13    26 1   
    24    14    27 1   
    25    15    16 1   
    26    15    28 1   
    27    15    29 1   
    28    16    17 1   
    29    16    30 1   
    30    16    31 1   
    31    17    18 1   
    32    18    19 1   
    33    18    32 1   
    34    19    33 1   
    35    19    34 1   
@<TRIPOS>SUBSTRUCTURE
     1 9DX         1 TEMP              0 ****  ****    0 ROOT
