@<TRIPOS>MOLECULE
9DX
   34    35     1     0     0
SMALL
bcc


@<TRIPOS>ATOM
      1 OAC          0.2550     0.9290     1.9250 o          1 9DX      -0.837800
      2 CAN         -0.0510     1.4230     0.8250 c          1 9DX       0.947600
      3 OAE         -0.3810     2.6080     0.6070 o          1 9DX      -0.837800
      4 CAS         -0.1120     0.4870    -0.4080 c5         1 9DX       0.010800
      5 CB          -1.5800     0.2490    -0.7800 c3         1 9DX      -0.074400
      6 CA          -2.5380    -0.1510     0.3560 c3         1 9DX       0.038500
      7 N           -2.1480    -1.3170     1.1330 n8         1 9DX      -0.880800
      8 C           -3.9340    -0.3470    -0.2720 c          1 9DX       0.928600
      9 O           -4.3080    -1.5170    -0.4880 o          1 9DX      -0.867800
     10 OXT         -4.5620     0.6940    -0.5590 o          1 9DX      -0.867800
     11 OAL          0.5330    -0.7590    -0.1320 os         1 9DX      -0.372600
     12 CAR          1.6740    -0.9230    -0.9400 c5         1 9DX       0.133100
     13 CAP          2.7980    -1.6090    -0.1910 c6         1 9DX       0.153100
     14 OAF          2.3220    -2.8350     0.3160 oh         1 9DX      -0.561800
     15 CAH          3.3590    -0.6820     0.8750 c6         1 9DX      -0.150400
     16 CAG          3.7830     0.6130     0.2050 c6         1 9DX       0.153400
     17 OAK          2.6930     1.2520    -0.4180 os         1 9DX      -0.365600
     18 CAQ          2.0460     0.4840    -1.4100 c5         1 9DX       0.106100
     19 CAJ          0.6610     1.0610    -1.6050 c5         1 9DX      -0.085400
     20 HB          -1.9600     1.1680    -1.2330 hc         1 9DX       0.030700
     21 HBA         -1.6090    -0.5170    -1.5650 hc         1 9DX       0.030700
     22 HA          -2.6080     0.6970     1.0460 h1         1 9DX       0.069700
     23 HN          -2.1310    -2.1230     0.5200 hn         1 9DX       0.328800
     24 HNA         -1.1970    -1.1870     1.4550 hn         1 9DX       0.328800
     25 HAR          1.4290    -1.5180    -1.8350 h1         1 9DX       0.018700
     26 HAP          3.5930    -1.7820    -0.9340 h1         1 9DX      -0.015300
     27 HOAF         3.0650    -3.2940     0.7200 ho         1 9DX       0.369000
     28 HAH          2.6000    -0.4790     1.6340 hc         1 9DX       0.067200
     29 HAHA         4.2240    -1.1390     1.3640 hc         1 9DX       0.067200
     30 HAG          4.1840     1.3180     0.9350 h1         1 9DX       0.012700
     31 HAGA         4.5820     0.4090    -0.5240 h1         1 9DX       0.012700
     32 HAQ          2.6480     0.4490    -2.3290 h1         1 9DX       0.004700
     33 HAJ          0.2470     0.6870    -2.5470 hc         1 9DX       0.052200
     34 HAJA         0.6390     2.1480    -1.6400 hc         1 9DX       0.052200
@<TRIPOS>BOND
     1     1     2 1   
     2     2     3 1   
     3     2     4 1   
     4     4     5 1   
     5     4    11 1   
     6     4    19 1   
     7     5     6 1   
     8     5    20 1   
     9     5    21 1   
    10     6     7 1   
    11     6     8 1   
    12     6    22 1   
    13     7    23 1   
    14     7    24 1   
    15     8     9 1   
    16     8    10 1   
    17    11    12 1   
    18    12    13 1   
    19    12    18 1   
    20    12    25 1   
    21    13    14 1   
    22    13    15 1   
    23    13    26 1   
    24    14    27 1   
    25    15    16 1   
    26    15    28 1   
    27    15    29 1   
    28    16    17 1   
    29    16    30 1   
    30    16    31 1   
    31    17    18 1   
    32    18    19 1   
    33    18    32 1   
    34    19    33 1   
    35    19    34 1   
@<TRIPOS>SUBSTRUCTURE
     1 9DX         1 TEMP              0 ****  ****    0 ROOT
