@<TRIPOS>MOLECULE
9DY
   16    17     1     0     0
SMALL
No Charge or Current Charge


@<TRIPOS>ATOM
      1 C3          -7.1190    27.3130    50.5200 cc         1 9DY       0.280500
      2 C5          -8.3090    26.8550    50.0330 cd         1 9DY      -0.276000
      3 C6          -6.7330    27.0790    51.9220 ca         1 9DY      -0.079500
      4 C8          -6.9110    25.8930    54.0460 ca         1 9DY       0.332400
      5 C11         -5.6750    27.8030    52.5130 ca         1 9DY      -0.142000
      6 C9          -5.3030    27.5420    53.8430 ca         1 9DY       0.332400
      7 N7          -5.9080    26.6050    54.6080 nb         1 9DY      -0.656000
      8 C10         -7.3470    26.0900    52.7230 ca         1 9DY      -0.142000
      9 S4          -8.4070    27.3420    48.3660 ss         1 9DY       0.301100
     10 N1          -6.9140    28.0980    48.4540 nd         1 9DY      -0.135100
     11 N2          -6.3430    28.0170    49.6340 nc         1 9DY      -0.295000
     12 H2          -9.1050    26.3030    50.5120 h4         1 9DY       0.174000
     13 H3          -7.3780    25.1360    54.6740 h4         1 9DY       0.021600
     14 H4          -5.1400    28.5700    51.9600 ha         1 9DY       0.132000
     15 H5          -4.4930    28.1000    54.3120 h4         1 9DY       0.021600
     16 H6          -8.1470    25.4640    52.3430 ha         1 9DY       0.132000
@<TRIPOS>BOND
     1     1     2 2   
     2     1     3 1   
     3     1    11 1   
     4     2     9 1   
     5     2    12 1   
     6     3     5 ar  
     7     3     8 ar  
     8     4     7 ar  
     9     4     8 ar  
    10     4    13 1   
    11     5     6 ar  
    12     5    14 1   
    13     6     7 ar  
    14     6    15 1   
    15     8    16 1   
    16     9    10 1   
    17    10    11 2   
@<TRIPOS>SUBSTRUCTURE
     1 9DY         1 TEMP              0 ****  ****    0 ROOT
