@<TRIPOS>MOLECULE
9DY
   16    17     1     0     0
SMALL
bcc


@<TRIPOS>ATOM
      1 C3          -7.1800    27.2890    50.5700 cc         1 9DY       0.345800
      2 C5          -8.2720    26.7580    49.9350 cd         1 9DY      -0.214400
      3 C6          -6.7410    27.0560    51.9480 ca         1 9DY      -0.079500
      4 C8          -6.9180    25.9590    54.0680 ca         1 9DY       0.397700
      5 C11         -5.6620    27.7550    52.4840 ca         1 9DY      -0.225300
      6 C9          -5.2830    27.5030    53.7920 ca         1 9DY       0.397700
      7 N7          -5.8900    26.6240    54.5810 nb         1 9DY      -0.656000
      8 C10         -7.3790    26.1320    52.7730 ca         1 9DY      -0.225300
      9 S4          -8.3160    27.3540    48.3650 ss         1 9DY       0.156200
     10 N1          -6.9220    28.2640    48.5940 nd         1 9DY      -0.135100
     11 N2          -6.4650    28.1250    49.7640 nc         1 9DY      -0.295000
     12 H2          -9.0120    26.0750    50.3230 h4         1 9DY       0.192000
     13 H3          -7.4070    25.2430    54.7180 h4         1 9DY       0.021600
     14 H4          -5.1220    28.4860    51.8990 ha         1 9DY       0.150000
     15 H5          -4.4440    28.0410    54.2190 h4         1 9DY       0.021600
     16 H6          -8.2200    25.5450    52.4300 ha         1 9DY       0.150000
@<TRIPOS>BOND
     1     1     2 2   
     2     1     3 1   
     3     1    11 1   
     4     2     9 1   
     5     2    12 1   
     6     3     5 ar  
     7     3     8 ar  
     8     4     7 ar  
     9     4     8 ar  
    10     4    13 1   
    11     5     6 ar  
    12     5    14 1   
    13     6     7 ar  
    14     6    15 1   
    15     8    16 1   
    16     9    10 1   
    17    10    11 2   
@<TRIPOS>SUBSTRUCTURE
     1 9DY         1 TEMP              0 ****  ****    0 ROOT
