@<TRIPOS>MOLECULE
9DZ
   36    36     1     0     0
SMALL
No Charge or Current Charge


@<TRIPOS>ATOM
      1 C91        -11.2910    29.7950     0.7560 c3         1 9DZ       0.091500
      2 C92        -12.3540    29.4130    -0.3140 c3         1 9DZ      -0.068400
      3 C93        -11.8010    29.1250    -1.7360 c3         1 9DZ      -0.078400
      4 C94        -10.8410    27.9170    -1.8190 c3         1 9DZ      -0.030100
      5 C95        -10.4220    27.6220    -3.2530 ca         1 9DZ      -0.075300
      6 C96        -11.1200    26.6670    -4.0170 ca         1 9DZ      -0.111500
      7 C97        -10.7400    26.3990    -5.3450 ca         1 9DZ      -0.071300
      8 C98         -9.6510    27.0890    -5.9080 ca         1 9DZ      -0.111000
      9 C99         -8.9450    28.0460    -5.1540 ca         1 9DZ      -0.071300
     10 CA0         -9.3370    28.3100    -3.8290 ca         1 9DZ      -0.111500
     11 CA1         -7.7730    28.7940    -5.7710 c3         1 9DZ      -0.045800
     12 CA2        -11.4980    25.3650    -6.1630 c3         1 9DZ      -0.045800
     13 CA3        -10.4880    31.1040     0.3990 c          1 9DZ       0.555100
     14 N90        -11.9520    29.8320     2.1040 n8         1 9DZ      -0.989200
     15 NA5         -9.2840    31.2370     1.0030 nt         1 9DZ      -0.605000
     16 OA4        -10.8940    31.9890    -0.3380 o          1 9DZ      -0.614100
     17 H1         -10.5510    28.9840     0.7950 h1         1 9DZ       0.058700
     18 H2         -13.0940    30.2200    -0.3860 hc         1 9DZ       0.060200
     19 H3         -12.9010    28.5250     0.0270 hc         1 9DZ       0.060200
     20 H4         -11.2960    30.0150    -2.1300 hc         1 9DZ       0.050200
     21 H5         -12.6520    28.9380    -2.4020 hc         1 9DZ       0.050200
     22 H6         -11.3280    27.0370    -1.3800 hc         1 9DZ       0.041700
     23 H7          -9.9500    28.1100    -1.2110 hc         1 9DZ       0.041700
     24 H8         -11.9610    26.1350    -3.5770 ha         1 9DZ       0.107000
     25 H9          -9.3530    26.8830    -6.9340 ha         1 9DZ       0.110000
     26 H10         -8.7980    29.0530    -3.2450 ha         1 9DZ       0.107000
     27 H11         -8.1130    29.7140    -6.2610 hc         1 9DZ       0.041867
     28 H12         -7.0330    29.0730    -5.0110 hc         1 9DZ       0.041867
     29 H13         -7.2590    28.1830    -6.5220 hc         1 9DZ       0.041867
     30 H14        -11.0580    24.3680    -6.0370 hc         1 9DZ       0.041867
     31 H15        -12.5500    25.3070    -5.8600 hc         1 9DZ       0.041867
     32 H16        -11.4780    25.6070    -7.2330 hc         1 9DZ       0.041867
     33 H17        -11.2540    30.0550     2.8260 hn         1 9DZ       0.407500
     34 H18        -12.5950    30.6340     2.1450 hn         1 9DZ       0.407500
     35 H20         -8.7300    32.0620     0.8240 hn         1 9DZ       0.314500
     36 H21         -8.9420    30.5150     1.6200 hn         1 9DZ       0.314500
@<TRIPOS>BOND
     1     1     2 1   
     2     1    13 1   
     3     1    14 1   
     4     1    17 1   
     5     2     3 1   
     6     2    18 1   
     7     2    19 1   
     8     3     4 1   
     9     3    20 1   
    10     3    21 1   
    11     4     5 1   
    12     4    22 1   
    13     4    23 1   
    14     5     6 ar  
    15     5    10 ar  
    16     6     7 ar  
    17     6    24 1   
    18     7     8 ar  
    19     7    12 1   
    20     8     9 ar  
    21     8    25 1   
    22     9    10 ar  
    23     9    11 1   
    24    10    26 1   
    25    11    27 1   
    26    11    28 1   
    27    11    29 1   
    28    12    30 1   
    29    12    31 1   
    30    12    32 1   
    31    13    15 1   
    32    13    16 2   
    33    14    33 1   
    34    14    34 1   
    35    15    35 1   
    36    15    36 1   
@<TRIPOS>SUBSTRUCTURE
     1 9DZ         1 TEMP              0 ****  ****    0 ROOT
