@<TRIPOS>MOLECULE
9DZ
   36    36     1     0     0
SMALL
abcg2


@<TRIPOS>ATOM
      1 C91        -11.2860    29.7860     0.7820 c3         1 9DZ       0.091500
      2 C92        -12.3790    29.4330    -0.2350 c3         1 9DZ      -0.068400
      3 C93        -11.8790    29.1170    -1.6440 c3         1 9DZ      -0.078400
      4 C94        -11.0220    27.8450    -1.7320 c3         1 9DZ      -0.030100
      5 C95        -10.5130    27.5950    -3.1270 ca         1 9DZ      -0.075300
      6 C96        -11.1260    26.6650    -3.9620 ca         1 9DZ      -0.111500
      7 C97        -10.6750    26.4510    -5.2670 ca         1 9DZ      -0.071300
      8 C98         -9.5950    27.2010    -5.7290 ca         1 9DZ      -0.111000
      9 C99         -8.9620    28.1460    -4.9180 ca         1 9DZ      -0.071300
     10 CA0         -9.4300    28.3270    -3.6190 ca         1 9DZ      -0.111500
     11 CA1         -7.8180    28.9690    -5.4480 c3         1 9DZ      -0.045800
     12 CA2        -11.3190    25.4070    -6.1400 c3         1 9DZ      -0.045800
     13 CA3        -10.4820    30.9920     0.2800 c          1 9DZ       0.555100
     14 N90        -11.9010    30.0480     2.0850 n8         1 9DZ      -0.989200
     15 NA5         -9.2050    30.7530    -0.0660 nt         1 9DZ      -0.605000
     16 OA4        -10.9910    32.1110     0.2040 o          1 9DZ      -0.614100
     17 H1         -10.6110    28.9370     0.9040 h1         1 9DZ       0.058700
     18 H2         -13.0750    30.2760    -0.2790 hc         1 9DZ       0.060200
     19 H3         -12.9320    28.5800     0.1650 hc         1 9DZ       0.060200
     20 H4         -11.3070    29.9620    -2.0380 hc         1 9DZ       0.050200
     21 H5         -12.7430    29.0000    -2.3040 hc         1 9DZ       0.050200
     22 H6         -11.6170    26.9920    -1.3950 hc         1 9DZ       0.041700
     23 H7         -10.1710    27.9270    -1.0530 hc         1 9DZ       0.041700
     24 H8         -11.9670    26.0900    -3.5890 ha         1 9DZ       0.107000
     25 H9          -9.2370    27.0460    -6.7420 ha         1 9DZ       0.110000
     26 H10         -8.9440    29.0520    -2.9730 ha         1 9DZ       0.107000
     27 H11         -8.1870    29.8590    -5.9670 hc         1 9DZ       0.041867
     28 H12         -7.1670    29.3080    -4.6410 hc         1 9DZ       0.041867
     29 H13         -7.2190    28.4020    -6.1630 hc         1 9DZ       0.041867
     30 H14        -10.8580    24.4270    -5.9810 hc         1 9DZ       0.041867
     31 H15        -12.3820    25.3050    -5.9160 hc         1 9DZ       0.041867
     32 H16        -11.2100    25.6520    -7.1970 hc         1 9DZ       0.041867
     33 H17        -11.1820    30.2330     2.7780 hn         1 9DZ       0.407500
     34 H18        -12.4610    30.8930     2.0220 hn         1 9DZ       0.407500
     35 H20         -8.6330    31.5010    -0.4280 hn         1 9DZ       0.314500
     36 H21         -8.8030    29.8330    -0.0030 hn         1 9DZ       0.314500
@<TRIPOS>BOND
     1     1     2 1   
     2     1    13 1   
     3     1    14 1   
     4     1    17 1   
     5     2     3 1   
     6     2    18 1   
     7     2    19 1   
     8     3     4 1   
     9     3    20 1   
    10     3    21 1   
    11     4     5 1   
    12     4    22 1   
    13     4    23 1   
    14     5     6 ar  
    15     5    10 ar  
    16     6     7 ar  
    17     6    24 1   
    18     7     8 ar  
    19     7    12 1   
    20     8     9 ar  
    21     8    25 1   
    22     9    10 ar  
    23     9    11 1   
    24    10    26 1   
    25    11    27 1   
    26    11    28 1   
    27    11    29 1   
    28    12    30 1   
    29    12    31 1   
    30    12    32 1   
    31    13    15 1   
    32    13    16 2   
    33    14    33 1   
    34    14    34 1   
    35    15    35 1   
    36    15    36 1   
@<TRIPOS>SUBSTRUCTURE
     1 9DZ         1 TEMP              0 ****  ****    0 ROOT
