@<TRIPOS>MOLECULE
9E0
   26    28     1     0     0
SMALL
No Charge or Current Charge


@<TRIPOS>ATOM
      1 C01         -8.2990   -27.7820   -10.0160 ca         1 9E0      -0.081000
      2 C02         -7.5430   -27.0660   -10.9800 ca         1 9E0      -0.161000
      3 C03         -9.5430   -27.2810    -9.5600 ca         1 9E0      -0.175000
      4 C04        -10.0010   -26.0700   -10.0990 ca         1 9E0      -0.031200
      5 C05         -8.0340   -25.8480   -11.4930 ca         1 9E0      -0.040000
      6 C06         -9.2700   -25.4060   -11.0320 ca         1 9E0      -0.126800
      7 C07         -9.9620   -24.2260   -11.4070 cc         1 9E0      -0.103400
      8 C08        -11.1250   -24.2080   -10.6430 cd         1 9E0      -0.192100
      9 C09         -7.9820   -23.1750   -12.4790 c6         1 9E0      -0.056700
     10 C10         -9.5440   -23.2350   -12.4640 c6         1 9E0       0.024500
     11 C11         -7.4430   -22.0960   -13.4580 c          1 9E0       0.735000
     12 C12        -10.1470   -23.6370   -13.8370 c3         1 9E0      -0.072100
     13 N01        -11.1610   -25.3670    -9.8180 na         1 9E0      -0.239700
     14 O01         -7.0610   -22.4670   -14.5600 o          1 9E0      -0.709500
     15 O02         -7.0010   -21.0770   -12.9450 o          1 9E0      -0.709500
     16 S01         -7.1450   -24.8460   -12.6840 ss         1 9E0      -0.114000
     17 H1          -7.9170   -28.7190    -9.6180 ha         1 9E0       0.088000
     18 H2          -6.5830   -27.4520   -11.3160 ha         1 9E0       0.110000
     19 H3         -10.1230   -27.8190    -8.8140 ha         1 9E0       0.094000
     20 H5         -11.9300   -23.4770   -10.6400 h4         1 9E0       0.201000
     21 H7          -7.6750   -22.8390   -11.4790 h1         1 9E0       0.059700
     22 H8          -9.9360   -22.2380   -12.2200 hc         1 9E0       0.072700
     23 H9         -11.2410   -23.6920   -13.7820 hc         1 9E0       0.032033
     24 H10         -9.8980   -22.9070   -14.6160 hc         1 9E0       0.032033
     25 H11         -9.7840   -24.6180   -14.1660 hc         1 9E0       0.032033
     26 H12        -11.8890   -25.6310    -9.1610 hn         1 9E0       0.331000
@<TRIPOS>BOND
     1     1     2 ar  
     2     1     3 ar  
     3     1    17 1   
     4     2     5 ar  
     5     2    18 1   
     6     3     4 ar  
     7     3    19 1   
     8     4     6 ar  
     9     4    13 1   
    10     5     6 ar  
    11     5    16 1   
    12     6     7 1   
    13     7     8 2   
    14     7    10 1   
    15     8    13 1   
    16     8    20 1   
    17     9    10 1   
    18     9    11 1   
    19     9    16 1   
    20     9    21 1   
    21    10    12 1   
    22    10    22 1   
    23    11    14 1   
    24    11    15 1   
    25    12    23 1   
    26    12    24 1   
    27    12    25 1   
    28    13    26 1   
@<TRIPOS>SUBSTRUCTURE
     1 9E0         1 TEMP              0 ****  ****    0 ROOT
