@<TRIPOS>MOLECULE
9E0
   26    28     1     0     0
SMALL
abcg2


@<TRIPOS>ATOM
      1 C01         -8.3200   -27.7440   -10.0650 ca         1 9E0      -0.081000
      2 C02         -7.5790   -27.0340   -11.0260 ca         1 9E0      -0.161000
      3 C03         -9.5300   -27.2880    -9.5690 ca         1 9E0      -0.175000
      4 C04        -10.0040   -26.0770   -10.0770 ca         1 9E0      -0.031200
      5 C05         -8.0550   -25.8340   -11.5270 ca         1 9E0      -0.040000
      6 C06         -9.2790   -25.3670   -11.0480 ca         1 9E0      -0.126800
      7 C07        -10.0040   -24.1920   -11.3860 cc         1 9E0      -0.103400
      8 C08        -11.1320   -24.2200   -10.6170 cd         1 9E0      -0.192100
      9 C09         -7.9740   -23.2380   -12.4300 c6         1 9E0      -0.056700
     10 C10         -9.5140   -23.2350   -12.4270 c6         1 9E0       0.024500
     11 C11         -7.3730   -22.2470   -13.4550 c          1 9E0       0.735000
     12 C12        -10.1070   -23.5530   -13.7990 c3         1 9E0      -0.072100
     13 N01        -11.1330   -25.3510    -9.8340 na         1 9E0      -0.239700
     14 O01         -6.5200   -22.6970   -14.2410 o          1 9E0      -0.709500
     15 O02         -7.8030   -21.0840   -13.3790 o          1 9E0      -0.709500
     16 S01         -7.2300   -24.8820   -12.7580 ss         1 9E0      -0.114000
     17 H1          -7.9210   -28.6800    -9.6930 ha         1 9E0       0.088000
     18 H2          -6.6300   -27.4340   -11.3650 ha         1 9E0       0.110000
     19 H3         -10.0780   -27.8520    -8.8240 ha         1 9E0       0.094000
     20 H5         -11.9500   -23.5180   -10.5570 h4         1 9E0       0.201000
     21 H7          -7.6420   -22.9380   -11.4310 h1         1 9E0       0.059700
     22 H8          -9.8060   -22.2160   -12.1550 hc         1 9E0       0.072700
     23 H9         -11.1960   -23.5360   -13.7540 hc         1 9E0       0.032033
     24 H10         -9.7960   -22.8250   -14.5500 hc         1 9E0       0.032033
     25 H11         -9.8050   -24.5440   -14.1410 hc         1 9E0       0.032033
     26 H12        -11.8550   -25.5920    -9.1770 hn         1 9E0       0.331000
@<TRIPOS>BOND
     1     1     2 ar  
     2     1     3 ar  
     3     1    17 1   
     4     2     5 ar  
     5     2    18 1   
     6     3     4 ar  
     7     3    19 1   
     8     4     6 ar  
     9     4    13 1   
    10     5     6 ar  
    11     5    16 1   
    12     6     7 1   
    13     7     8 2   
    14     7    10 1   
    15     8    13 1   
    16     8    20 1   
    17     9    10 1   
    18     9    11 1   
    19     9    16 1   
    20     9    21 1   
    21    10    12 1   
    22    10    22 1   
    23    11    14 1   
    24    11    15 1   
    25    12    23 1   
    26    12    24 1   
    27    12    25 1   
    28    13    26 1   
@<TRIPOS>SUBSTRUCTURE
     1 9E0         1 TEMP              0 ****  ****    0 ROOT
