@<TRIPOS>MOLECULE
9E1
   49    51     1     0     0
SMALL
abcg2


@<TRIPOS>ATOM
      1 N3          -5.6550     1.6070     0.3820 nc         1 9E1      -0.364000
      2 C4          -5.9050    -0.3350     1.2240 cd         1 9E1       0.366400
      3 N2          -6.5080     0.8060     1.0470 nc         1 9E1      -0.365000
      4 C7          -3.5830     2.6570    -1.3080 ca         1 9E1      -0.145000
      5 C6          -3.4000     1.5150    -0.5370 ca         1 9E1       0.358000
      6 C9          -1.2440     2.5800    -1.8050 ca         1 9E1      -0.203000
      7 C13          2.5790     0.1450     0.4520 ca         1 9E1       0.045000
      8 C8          -2.4720     3.1950    -1.9420 ca         1 9E1      -0.050000
      9 C18          2.1920    -3.7530    -2.2970 c3         1 9E1       0.144900
     10 C16          3.7710    -2.0930    -0.6870 ca         1 9E1      -0.237000
     11 C1          -3.2160    -1.6750     2.1150 c3         1 9E1      -0.102100
     12 C3          -4.3730    -2.6800     0.1010 c3         1 9E1      -0.102100
     13 N1          -4.6660    -0.3130     0.6890 na         1 9E1      -0.333000
     14 C5          -4.5490     0.9380     0.1680 cd         1 9E1       0.321500
     15 C10         -1.1710     1.4340    -1.0100 ca         1 9E1       0.491900
     16 N4          -2.2150     0.9310    -0.3830 nb         1 9E1      -0.704000
     17 C11          0.3490    -0.4610    -0.4870 c          1 9E1       0.642700
     18 O1          -0.4780    -1.3240    -0.3000 o          1 9E1      -0.534100
     19 C12          1.8150    -0.7130    -0.3220 ca         1 9E1      -0.229600
     20 C14          3.9230    -0.1210     0.6680 ca         1 9E1      -0.330500
     21 C15          4.5180    -1.2370     0.0990 ca         1 9E1       0.062000
     22 C17          2.4130    -1.8450    -0.9040 ca         1 9E1       0.245100
     23 O2           1.6370    -2.6100    -1.6650 os         1 9E1      -0.314100
     24 S1           4.8970     0.9680     1.6540 sy         1 9E1       1.135600
     25 O3           6.2340     1.0730     1.0870 o          1 9E1      -0.545000
     26 O4           4.1330     2.1920     1.8530 o          1 9E1      -0.545000
     27 N6           5.0690     0.0820     3.0380 n8         1 9E1      -1.000100
     28 H8          -6.3240    -1.1910     1.7280 h5         1 9E1       0.062100
     29 H9          -4.5590     3.1070    -1.4100 ha         1 9E1       0.155000
     30 H11         -0.3650     2.9700    -2.3030 ha         1 9E1       0.126000
     31 H13          2.1170     1.0140     0.9030 ha         1 9E1       0.145000
     32 H10         -2.5680     4.0830    -2.5500 ha         1 9E1       0.126000
     33 H12          0.8580     1.3810    -1.1610 hn         1 9E1       0.162000
     34 H18          2.9850    -3.4820    -2.9980 h1         1 9E1       0.051700
     35 H16          2.5830    -4.4660    -1.5690 h1         1 9E1       0.051700
     36 H17          1.3790    -4.2190    -2.8460 h1         1 9E1       0.051700
     37 H15          4.2610    -2.9480    -1.1290 ha         1 9E1       0.130000
     38 H1          -2.7630    -0.7710     2.5200 hc         1 9E1       0.046033
     39 H3          -4.0170    -1.9930     2.7850 hc         1 9E1       0.046033
     40 H2          -2.4560    -2.4560     2.1060 hc         1 9E1       0.046033
     41 H4          -2.8840    -1.1420     0.0840 h1         1 9E1       0.122700
     42 H6          -5.2050    -3.0470     0.7040 hc         1 9E1       0.046033
     43 H7          -4.7360    -2.4890    -0.9090 hc         1 9E1       0.046033
     44 H5          -3.6340    -3.4790     0.0440 hc         1 9E1       0.046033
     45 H14          5.5670    -1.4500     0.2570 ha         1 9E1       0.139000
     46 H19          4.2080     0.0260     3.5750 hn         1 9E1       0.473500
     47 H20          5.8160     0.4480     3.6210 hn         1 9E1       0.473500
     48 N5           0.0730     0.8280    -0.8510 ns         1 9E1      -0.332900
     49 C2          -3.7240    -1.4430     0.7010 c3         1 9E1       0.081300
@<TRIPOS>BOND
     1     1     3 1   
     2     1    14 2   
     3     2     3 2   
     4     2    13 1   
     5     2    28 1   
     6     4     5 ar  
     7     4     8 ar  
     8     4    29 1   
     9     5    14 1   
    10     5    16 ar  
    11     6     8 ar  
    12     6    15 ar  
    13     6    30 1   
    14     7    19 ar  
    15     7    20 ar  
    16     7    31 1   
    17     8    32 1   
    18     9    23 1   
    19     9    34 1   
    20     9    35 1   
    21     9    36 1   
    22    10    21 ar  
    23    10    22 ar  
    24    10    37 1   
    25    11    38 1   
    26    11    39 1   
    27    11    40 1   
    28    11    49 1   
    29    12    42 1   
    30    12    43 1   
    31    12    44 1   
    32    12    49 1   
    33    13    14 1   
    34    13    49 1   
    35    15    16 ar  
    36    15    48 1   
    37    17    18 2   
    38    17    19 1   
    39    17    48 1   
    40    19    22 ar  
    41    20    21 ar  
    42    20    24 1   
    43    21    45 1   
    44    22    23 1   
    45    24    25 2   
    46    24    26 2   
    47    24    27 1   
    48    27    46 1   
    49    27    47 1   
    50    33    48 1   
    51    41    49 1   
@<TRIPOS>SUBSTRUCTURE
     1 9E1         1 TEMP              0 ****  ****    0 ROOT
