@<TRIPOS>MOLECULE
9E1
   49    51     1     0     0
SMALL
No Charge or Current Charge


@<TRIPOS>ATOM
      1 N3          -5.8170     1.4500     0.0810 nc         1 9E1      -0.364000
      2 C4          -6.0340    -0.5230     0.9830 cd         1 9E1       0.366400
      3 N2          -6.6990     0.5790     0.6780 nc         1 9E1      -0.365000
      4 C7          -3.5470     2.8730    -1.0890 ca         1 9E1      -0.145000
      5 C6          -3.4150     1.5780    -0.5320 ca         1 9E1       0.358000
      6 C9          -1.1830     2.8840    -1.5390 ca         1 9E1      -0.203000
      7 C13          2.5820     0.0960     0.2640 ca         1 9E1       0.045000
      8 C8          -2.4200     3.5400    -1.5970 ca         1 9E1      -0.050000
      9 C18          2.2550    -4.0110    -2.4220 c3         1 9E1       0.144900
     10 C16          3.7660    -2.2550    -0.6980 ca         1 9E1      -0.237000
     11 C1          -2.8960    -1.2690     2.0560 c3         1 9E1      -0.102100
     12 C3          -4.2250    -2.8830     0.5950 c3         1 9E1      -0.102100
     13 N1          -4.7210    -0.4090     0.5820 na         1 9E1      -0.333000
     14 C5          -4.6190     0.8690     0.0300 cd         1 9E1       0.321500
     15 C10         -1.1290     1.5930    -0.9990 ca         1 9E1       0.491900
     16 N4          -2.2010     0.9660    -0.4840 nb         1 9E1      -0.704000
     17 C11          0.3930    -0.4190    -0.9090 c          1 9E1       0.642700
     18 O1          -0.4450    -1.2640    -1.1960 o          1 9E1      -0.534100
     19 C12          1.8260    -0.7690    -0.5650 ca         1 9E1      -0.229600
     20 C14          3.9120    -0.2160     0.6040 ca         1 9E1      -0.330500
     21 C15          4.5050    -1.3920     0.1210 ca         1 9E1       0.062000
     22 C17          2.4300    -1.9550    -1.0470 ca         1 9E1       0.245100
     23 O2           1.7160    -2.7900    -1.8870 os         1 9E1      -0.314100
     24 S1           4.8610     0.8800     1.6520 sy         1 9E1       1.135600
     25 O3           6.2900     0.7450     1.3730 o          1 9E1      -0.545000
     26 O4           4.1890     2.1710     1.7640 o          1 9E1      -0.545000
     27 N6           4.6450     0.1940     3.1180 n8         1 9E1      -1.000100
     28 H8          -6.4320    -1.4050     1.4700 h5         1 9E1       0.062100
     29 H9          -4.5160     3.3630    -1.1230 ha         1 9E1       0.155000
     30 H11         -0.2810     3.3640    -1.9070 ha         1 9E1       0.126000
     31 H13          2.1360     1.0050     0.6660 ha         1 9E1       0.145000
     32 H10         -2.5040     4.5400    -2.0180 ha         1 9E1       0.126000
     33 H12          0.8780     1.5400    -0.6810 hn         1 9E1       0.162000
     34 H18          3.1410    -3.8110    -3.0380 h1         1 9E1       0.051700
     35 H16          2.5330    -4.7020    -1.6160 h1         1 9E1       0.051700
     36 H17          1.5100    -4.5100    -3.0540 h1         1 9E1       0.051700
     37 H15          4.2560    -3.1540    -1.0580 ha         1 9E1       0.130000
     38 H1          -2.4570    -0.2660     2.1180 hc         1 9E1       0.046033
     39 H3          -3.5590    -1.4060     2.9180 hc         1 9E1       0.046033
     40 H2          -2.0810    -1.9990     2.1270 hc         1 9E1       0.046033
     41 H4          -2.9570    -1.3320    -0.0920 h1         1 9E1       0.122700
     42 H6          -4.8930    -3.1360     1.4270 hc         1 9E1       0.046033
     43 H7          -4.7800    -2.9950    -0.3450 hc         1 9E1       0.046033
     44 H5          -3.4040    -3.6100     0.5890 hc         1 9E1       0.046033
     45 H14          5.5330    -1.6440     0.3780 ha         1 9E1       0.139000
     46 H19          3.7910    -0.3410     2.9830 hn         1 9E1       0.473500
     47 H20          4.3460     0.9980     3.6650 hn         1 9E1       0.473500
     48 N5           0.0930     0.9270    -0.8450 ns         1 9E1      -0.332900
     49 C2          -3.6710    -1.4460     0.7330 c3         1 9E1       0.081300
@<TRIPOS>BOND
     1     1     3 1   
     2     1    14 2   
     3     2     3 2   
     4     2    13 1   
     5     2    28 1   
     6     4     5 ar  
     7     4     8 ar  
     8     4    29 1   
     9     5    14 1   
    10     5    16 ar  
    11     6     8 ar  
    12     6    15 ar  
    13     6    30 1   
    14     7    19 ar  
    15     7    20 ar  
    16     7    31 1   
    17     8    32 1   
    18     9    23 1   
    19     9    34 1   
    20     9    35 1   
    21     9    36 1   
    22    10    21 ar  
    23    10    22 ar  
    24    10    37 1   
    25    11    38 1   
    26    11    39 1   
    27    11    40 1   
    28    11    49 1   
    29    12    42 1   
    30    12    43 1   
    31    12    44 1   
    32    12    49 1   
    33    13    14 1   
    34    13    49 1   
    35    15    16 ar  
    36    15    48 1   
    37    17    18 2   
    38    17    19 1   
    39    17    48 1   
    40    19    22 ar  
    41    20    21 ar  
    42    20    24 1   
    43    21    45 1   
    44    22    23 1   
    45    24    25 2   
    46    24    26 2   
    47    24    27 1   
    48    27    46 1   
    49    27    47 1   
    50    33    48 1   
    51    41    49 1   
@<TRIPOS>SUBSTRUCTURE
     1 9E1         1 TEMP              0 ****  ****    0 ROOT
