@<TRIPOS>MOLECULE
9E2
   36    37     1     0     0
SMALL
abcg2


@<TRIPOS>ATOM
      1 C11         -3.5640     0.9140     0.2040 ca         1 9E2       0.023000
      2 C5           1.6590    -1.6010    -0.8340 c3         1 9E2      -0.014400
      3 C9          -4.3350    -1.3360    -0.1780 ca         1 9E2       0.023000
      4 C8          -3.0340    -1.7400    -0.3790 ca         1 9E2      -0.173500
      5 C7          -1.9780    -0.8240    -0.2940 ca         1 9E2       0.030000
      6 C6           0.4920    -0.6870    -0.4750 c          1 9E2       0.593100
      7 N4          -6.8660     0.4660    -1.1540 n8         1 9E2      -1.003100
      8 C2           3.5480    -0.0810    -1.4070 cc         1 9E2      -0.112300
      9 N1           3.4830    -1.0750     0.5960 nc         1 9E2      -0.433800
     10 N3          -0.7000    -1.3300    -0.5170 ns         1 9E2      -0.145000
     11 C3           4.6410     0.3600    -0.6960 cd         1 9E2       0.049000
     12 C4           4.5380    -0.2970     0.5410 cd         1 9E2       0.180500
     13 N5           5.4090    -0.2170     1.6710 no         1 9E2       0.621500
     14 O5           6.3510     0.5340     1.5810 o          1 9E2      -0.372000
     15 O4           5.1520    -0.8940     2.6360 o          1 9E2      -0.372000
     16 N2           2.9100    -0.9430    -0.5810 na         1 9E2       0.164800
     17 O1           0.6570     0.4820    -0.2060 o          1 9E2      -0.537100
     18 C12         -2.2530     0.5110     0.0010 ca         1 9E2      -0.173500
     19 C10         -4.5980    -0.0020     0.1130 ca         1 9E2      -0.302500
     20 S1          -6.2660     0.5050     0.3860 sy         1 9E2       1.131600
     21 O3          -6.2410     1.8480     0.9500 o          1 9E2      -0.542000
     22 O2          -6.9790    -0.5360     1.1120 o          1 9E2      -0.542000
     23 H1          -3.7610     1.9530     0.4320 ha         1 9E2       0.141000
     24 H2           1.6330    -2.5220    -0.2530 h1         1 9E2       0.096200
     25 H3           1.5990    -1.8790    -1.8880 h1         1 9E2       0.096200
     26 H4          -5.1330    -2.0630    -0.2480 ha         1 9E2       0.141000
     27 H5          -2.8300    -2.7800    -0.6020 ha         1 9E2       0.134500
     28 H6          -6.5170     1.2250    -1.7290 hn         1 9E2       0.472500
     29 H7          -7.8820     0.4670    -1.1560 hn         1 9E2       0.472500
     30 H8          -0.6670    -2.3160    -0.7350 hn         1 9E2       0.156000
     31 H9           3.0680    -0.6470    -3.4090 hc         1 9E2       0.064367
     32 H10          2.0940     0.6810    -2.7730 hc         1 9E2       0.064367
     33 H11          3.7690     0.9580    -3.2360 hc         1 9E2       0.064367
     34 H12         -1.4680     1.2440     0.0750 ha         1 9E2       0.134500
     35 C1           3.0910     0.2420    -2.7780 c3         1 9E2      -0.037800
     36 CL1          5.8120     1.4540    -1.2580 cl         1 9E2      -0.096000
@<TRIPOS>BOND
     1     1    18 ar  
     2     1    19 ar  
     3     1    23 1   
     4     2     6 1   
     5     2    16 1   
     6     2    24 1   
     7     2    25 1   
     8     3     4 ar  
     9     3    19 ar  
    10     3    26 1   
    11     4     5 ar  
    12     4    27 1   
    13     5    10 1   
    14     5    18 ar  
    15     6    10 1   
    16     6    17 2   
    17     7    20 1   
    18     7    28 1   
    19     7    29 1   
    20     8    11 2   
    21     8    16 1   
    22     8    35 1   
    23     9    12 2   
    24     9    16 1   
    25    10    30 1   
    26    11    12 1   
    27    11    36 1   
    28    12    13 1   
    29    13    14 1   
    30    13    15 1   
    31    18    34 1   
    32    19    20 1   
    33    20    21 2   
    34    20    22 2   
    35    31    35 1   
    36    32    35 1   
    37    33    35 1   
@<TRIPOS>SUBSTRUCTURE
     1 9E2         1 TEMP              0 ****  ****    0 ROOT
