@<TRIPOS>MOLECULE
9E2
   36    37     1     0     0
SMALL
No Charge or Current Charge


@<TRIPOS>ATOM
      1 C11         -3.8070     0.8360     0.2560 ca         1 9E2       0.023000
      2 C5           1.6560    -1.5260    -0.6650 c3         1 9E2      -0.014400
      3 C9          -4.4740    -1.4540    -0.2330 ca         1 9E2       0.023000
      4 C8          -3.1240    -1.8040    -0.4010 ca         1 9E2      -0.173500
      5 C7          -2.1030    -0.8480    -0.2470 ca         1 9E2       0.030000
      6 C6           0.4520    -0.6100    -0.4270 c          1 9E2       0.593100
      7 N4          -6.9850     0.6590    -1.2260 n8         1 9E2      -1.003100
      8 C2           3.6260    -0.0800    -1.4310 cc         1 9E2      -0.112300
      9 N1           3.6320    -0.9990     0.7000 nc         1 9E2      -0.433800
     10 N3          -0.7620    -1.2850    -0.4320 ns         1 9E2      -0.145000
     11 C3           4.7690     0.2860    -0.7810 cd         1 9E2       0.049000
     12 C4           4.7490    -0.2900     0.5250 cd         1 9E2       0.180500
     13 N5           5.7740    -0.1670     1.5760 no         1 9E2       0.621500
     14 O5           6.7900     0.5060     1.3470 o          1 9E2      -0.372000
     15 O4           5.5770    -0.7480     2.6570 o          1 9E2      -0.372000
     16 N2           2.9540    -0.8580    -0.4910 na         1 9E2       0.164800
     17 O1           0.5630     0.6000    -0.2600 o          1 9E2      -0.537100
     18 C12         -2.4580     0.4770     0.0850 ca         1 9E2      -0.173500
     19 C10         -4.8200    -0.1300     0.0950 ca         1 9E2      -0.302500
     20 S1          -6.5410     0.3180     0.3100 sy         1 9E2       1.131600
     21 O3          -6.6420     1.6030     0.9970 o          1 9E2      -0.542000
     22 O2          -7.3330    -0.8530     0.6860 o          1 9E2      -0.542000
     23 H1          -4.0550     1.8650     0.5140 ha         1 9E2       0.141000
     24 H2           1.5880    -2.3660     0.0350 h1         1 9E2       0.096200
     25 H3           1.5860    -1.9260    -1.6830 h1         1 9E2       0.096200
     26 H4          -5.2450    -2.2140    -0.3600 ha         1 9E2       0.141000
     27 H5          -2.8730    -2.8320    -0.6550 ha         1 9E2       0.134500
     28 H6          -6.0900     0.8450    -1.6720 hn         1 9E2       0.472500
     29 H7          -7.3950     1.5820    -1.1070 hn         1 9E2       0.472500
     30 H8          -0.6820    -2.2800    -0.5980 hn         1 9E2       0.156000
     31 H9           3.0240    -0.6660    -3.4200 hc         1 9E2       0.064367
     32 H10          2.1710     0.7580    -2.7910 hc         1 9E2       0.064367
     33 H11          3.8440     0.9000    -3.3490 hc         1 9E2       0.064367
     34 H12         -1.7070     1.2480     0.2230 ha         1 9E2       0.134500
     35 C1           3.1400     0.2450    -2.8220 c3         1 9E2      -0.037800
     36 Cl1          6.0350     1.2840    -1.4420 cl         1 9E2      -0.096000
@<TRIPOS>BOND
     1     1    18 ar  
     2     1    19 ar  
     3     1    23 1   
     4     2     6 1   
     5     2    16 1   
     6     2    24 1   
     7     2    25 1   
     8     3     4 ar  
     9     3    19 ar  
    10     3    26 1   
    11     4     5 ar  
    12     4    27 1   
    13     5    10 1   
    14     5    18 ar  
    15     6    10 1   
    16     6    17 2   
    17     7    20 1   
    18     7    28 1   
    19     7    29 1   
    20     8    11 2   
    21     8    16 1   
    22     8    35 1   
    23     9    12 2   
    24     9    16 1   
    25    10    30 1   
    26    11    12 1   
    27    11    36 1   
    28    12    13 1   
    29    13    14 1   
    30    13    15 1   
    31    18    34 1   
    32    19    20 1   
    33    20    21 2   
    34    20    22 2   
    35    31    35 1   
    36    32    35 1   
    37    33    35 1   
@<TRIPOS>SUBSTRUCTURE
     1 9E2         1 TEMP              0 ****  ****    0 ROOT
