@<TRIPOS>MOLECULE
9E3
   28    30     1     0     0
SMALL
abcg2


@<TRIPOS>ATOM
      1 C10        -20.4090    -6.8740    79.1850 ca         1 9E3      -0.078000
      2 C15        -23.5050    -8.0740    75.9490 cc         1 9E3       0.465200
      3 C17        -23.8240    -7.0440    77.7690 cd         1 9E3       0.417400
      4 C01        -23.3520    -7.2950    81.4280 ca         1 9E3      -0.034000
      5 C02        -23.1200    -6.2620    82.3540 ca         1 9E3      -0.232000
      6 C03        -22.0190    -5.4480    82.2310 ca         1 9E3       0.193100
      7 C04        -21.0990    -5.6530    81.1560 ca         1 9E3       0.243000
      8 C05        -21.3490    -6.7090    80.2290 ca         1 9E3      -0.031000
      9 C06        -22.5000    -7.5350    80.3790 ca         1 9E3      -0.154300
     10 C08        -19.1770    -5.0240    80.0690 ca         1 9E3       0.338900
     11 C09        -19.3270    -6.0380    79.1030 ca         1 9E3      -0.140000
     12 C12        -22.7870    -8.6550    79.4200 c3         1 9E3       0.134900
     13 C14        -22.9400    -8.8710    76.9040 cd         1 9E3      -0.280000
     14 F18        -23.5480    -8.3050    74.6290 f          1 9E3      -0.216200
     15 N07        -20.0210    -4.8330    81.0580 nb         1 9E3      -0.625000
     16 N13        -23.1570    -8.1780    78.0790 na         1 9E3      -0.165500
     17 N16        -24.0480    -6.9520    76.4620 nc         1 9E3      -0.692000
     18 O11        -21.7510    -4.4370    83.0930 oh         1 9E3      -0.495100
     19 H101       -20.5440    -7.6570    78.4510 ha         1 9E3       0.125000
     20 H171       -24.1150    -6.3180    78.5090 h5         1 9E3       0.067100
     21 H011       -24.2320    -7.9140    81.5510 ha         1 9E3       0.117000
     22 H021       -23.8130    -6.1010    83.1710 ha         1 9E3       0.123000
     23 H081       -18.3260    -4.3530    80.0160 h4         1 9E3       0.026100
     24 H091       -18.5940    -6.1450    78.3140 ha         1 9E3       0.129000
     25 H121       -23.6000    -9.2700    79.8080 h1         1 9E3       0.065200
     26 H122       -21.9180    -9.3000    79.2900 h1         1 9E3       0.065200
     27 H141       -22.4240    -9.8140    76.8650 h4         1 9E3       0.169000
     28 H111       -22.4420    -4.3960    83.7700 ho         1 9E3       0.463000
@<TRIPOS>BOND
     1     1     8 ar  
     2     1    11 ar  
     3     1    19 1   
     4     2    13 2   
     5     2    14 1   
     6     2    17 1   
     7     3    16 1   
     8     3    17 2   
     9     3    20 1   
    10     4     5 ar  
    11     4     9 ar  
    12     4    21 1   
    13     5     6 ar  
    14     5    22 1   
    15     6     7 ar  
    16     6    18 1   
    17     7     8 ar  
    18     7    15 ar  
    19     8     9 ar  
    20     9    12 1   
    21    10    11 ar  
    22    10    15 ar  
    23    10    23 1   
    24    11    24 1   
    25    12    16 1   
    26    12    25 1   
    27    12    26 1   
    28    13    16 1   
    29    13    27 1   
    30    18    28 1   
@<TRIPOS>SUBSTRUCTURE
     1 9E3         1 TEMP              0 ****  ****    0 ROOT
