@<TRIPOS>MOLECULE
9E3
   28    30     1     0     0
SMALL
No Charge or Current Charge


@<TRIPOS>ATOM
      1 C10        -20.3900    -6.9270    79.1910 ca         1 9E3      -0.078000
      2 C15        -23.4810    -7.9870    75.9480 cc         1 9E3       0.465200
      3 C17        -24.0690    -7.1410    77.8220 cd         1 9E3       0.417400
      4 C01        -23.3630    -7.2610    81.4420 ca         1 9E3      -0.034000
      5 C02        -23.1240    -6.2170    82.3440 ca         1 9E3      -0.232000
      6 C03        -21.9870    -5.4070    82.2070 ca         1 9E3       0.193100
      7 C04        -21.0570    -5.6310    81.1510 ca         1 9E3       0.243000
      8 C05        -21.3130    -6.7000    80.2390 ca         1 9E3      -0.031000
      9 C06        -22.4700    -7.5130    80.3870 ca         1 9E3      -0.154300
     10 C08        -19.0850    -5.0690    80.0170 ca         1 9E3       0.338900
     11 C09        -19.2650    -6.0970    79.0840 ca         1 9E3      -0.140000
     12 C12        -22.7970    -8.6620    79.4290 c3         1 9E3       0.134900
     13 C14        -22.8400    -8.7510    76.8780 cd         1 9E3      -0.280000
     14 F18        -23.3650    -8.2070    74.6320 f          1 9E3      -0.216200
     15 N07        -19.9530    -4.8380    81.0250 nb         1 9E3      -0.625000
     16 N13        -23.2170    -8.2060    78.0940 na         1 9E3      -0.165500
     17 N16        -24.2350    -7.0030    76.5110 nc         1 9E3      -0.692000
     18 O11        -21.8020    -4.3970    83.1190 oh         1 9E3      -0.495100
     19 H101       -20.5230    -7.7240    78.4650 ha         1 9E3       0.125000
     20 H171       -24.5130    -6.5360    78.6040 h5         1 9E3       0.067100
     21 H011       -24.2540    -7.8750    81.5660 ha         1 9E3       0.117000
     22 H021       -23.8320    -6.0430    83.1510 ha         1 9E3       0.123000
     23 H081       -18.2200    -4.4100    79.9570 h4         1 9E3       0.026100
     24 H091       -18.5380    -6.2450    78.2910 ha         1 9E3       0.129000
     25 H121       -23.6040    -9.2780    79.8460 h1         1 9E3       0.065200
     26 H122       -21.9210    -9.3140    79.3250 h1         1 9E3       0.065200
     27 H141       -22.1770    -9.5990    76.7630 h4         1 9E3       0.169000
     28 H111       -22.5470    -4.4170    83.7540 ho         1 9E3       0.463000
@<TRIPOS>BOND
     1     1     8 ar  
     2     1    11 ar  
     3     1    19 1   
     4     2    13 2   
     5     2    14 1   
     6     2    17 1   
     7     3    16 1   
     8     3    17 2   
     9     3    20 1   
    10     4     5 ar  
    11     4     9 ar  
    12     4    21 1   
    13     5     6 ar  
    14     5    22 1   
    15     6     7 ar  
    16     6    18 1   
    17     7     8 ar  
    18     7    15 ar  
    19     8     9 ar  
    20     9    12 1   
    21    10    11 ar  
    22    10    15 ar  
    23    10    23 1   
    24    11    24 1   
    25    12    16 1   
    26    12    25 1   
    27    12    26 1   
    28    13    16 1   
    29    13    27 1   
    30    18    28 1   
@<TRIPOS>SUBSTRUCTURE
     1 9E3         1 TEMP              0 ****  ****    0 ROOT
