@<TRIPOS>MOLECULE
9E4
   51    53     1     0     0
SMALL
No Charge or Current Charge


@<TRIPOS>ATOM
      1 N3          -5.6750    -1.2550    -0.3050 nc         1 9E4      -0.365000
      2 C4          -5.8900     0.9140    -0.3480 cd         1 9E4       0.364400
      3 N2          -6.5690    -0.2190    -0.4390 nc         1 9E4      -0.366000
      4 C7          -3.3690    -3.0280     0.0250 ca         1 9E4      -0.143000
      5 C6          -3.2390    -1.6180    -0.0000 ca         1 9E4       0.356000
      6 C9          -0.9770    -3.2120     0.2190 ca         1 9E4      -0.197000
      7 C13          3.0750    -0.4320     0.2470 ca         1 9E4       0.001000
      8 C20          7.8760    -1.6180    -0.6920 c3         1 9E4       0.093300
      9 C8          -2.2270    -3.8390     0.1330 ca         1 9E4      -0.054000
     10 C18          1.6830     4.2730     0.5700 c3         1 9E4       0.145900
     11 C16          3.7450     2.2820     0.1880 ca         1 9E4      -0.217000
     12 C19          5.4530    -1.1350    -0.2250 c          1 9E4       0.616700
     13 C1          -2.8150     2.0160    -1.2980 c3         1 9E4      -0.102600
     14 C3          -3.9770     2.9270     0.7810 c3         1 9E4      -0.102600
     15 N1          -4.5550     0.6480    -0.1360 na         1 9E4      -0.331000
     16 C5          -4.4560    -0.7440    -0.1360 cd         1 9E4       0.319500
     17 C10         -0.9230    -1.8130     0.2140 ca         1 9E4       0.487900
     18 N4          -2.0120    -1.0360     0.0800 nb         1 9E4      -0.703000
     19 C11          0.6400     0.0940     0.7420 c          1 9E4       0.646700
     20 O1          -0.1280     0.7410     1.4430 o          1 9E4      -0.540100
     21 C12          2.0630     0.5350     0.4700 ca         1 9E4      -0.212600
     22 C14          4.4130    -0.0570    -0.0010 ca         1 9E4      -0.195600
     23 C15          4.7370     1.3160    -0.0270 ca         1 9E4      -0.029000
     24 C17          2.4080     1.9060     0.4360 ca         1 9E4       0.204100
     25 O2           1.4200     2.8590     0.6050 os         1 9E4      -0.323100
     26 O3           5.1700    -2.3250    -0.2070 o          1 9E4      -0.605100
     27 N6           6.7450    -0.7170    -0.4550 ns         1 9E4      -0.502900
     28 H8          -6.2930     1.9170    -0.4170 h5         1 9E4       0.062100
     29 H9          -4.3490    -3.4920    -0.0440 ha         1 9E4       0.155000
     30 H11         -0.0640    -3.7980     0.2900 ha         1 9E4       0.127000
     31 H13          2.8320    -1.4920     0.2880 ha         1 9E4       0.144000
     32 H22          8.7880    -1.0280    -0.8460 h1         1 9E4       0.041700
     33 H21          8.0120    -2.2760     0.1760 h1         1 9E4       0.041700
     34 H20          7.6830    -2.2260    -1.5850 h1         1 9E4       0.041700
     35 H10         -2.3120    -4.9240     0.1440 ha         1 9E4       0.125000
     36 H12          1.0370    -1.6120    -0.2890 hn         1 9E4       0.164000
     37 H18          2.0950     4.5700    -0.4040 h1         1 9E4       0.047367
     38 H16          0.7550     4.8350     0.7310 h1         1 9E4       0.047367
     39 H17          2.3930     4.5580     1.3560 h1         1 9E4       0.047367
     40 H15          4.0390     3.3270     0.1520 ha         1 9E4       0.125000
     41 H2          -3.5340     2.4860    -1.9800 hc         1 9E4       0.046367
     42 H1          -1.9810     2.7100    -1.1420 hc         1 9E4       0.046367
     43 H3          -2.4190     1.1170    -1.7860 hc         1 9E4       0.046367
     44 H4          -2.7160     1.2290     0.6990 h1         1 9E4       0.119700
     45 H6          -3.1320     3.5910     1.0040 hc         1 9E4       0.046367
     46 H5          -4.6950     3.4890     0.1730 hc         1 9E4       0.046367
     47 H7          -4.4560     2.6620     1.7310 hc         1 9E4       0.046367
     48 H14          5.7530     1.6550    -0.2140 ha         1 9E4       0.113000
     49 H19          6.9130     0.2800    -0.4580 hn         1 9E4       0.315500
     50 N5           0.3020    -1.1350     0.2130 ns         1 9E4      -0.330900
     51 C2          -3.4840     1.6600     0.0460 c3         1 9E4       0.087300
@<TRIPOS>BOND
     1     1     3 1   
     2     1    16 2   
     3     2     3 2   
     4     2    15 1   
     5     2    28 1   
     6     4     5 ar  
     7     4     9 ar  
     8     4    29 1   
     9     5    16 1   
    10     5    18 ar  
    11     6     9 ar  
    12     6    17 ar  
    13     6    30 1   
    14     7    21 ar  
    15     7    22 ar  
    16     7    31 1   
    17     8    27 1   
    18     8    32 1   
    19     8    33 1   
    20     8    34 1   
    21     9    35 1   
    22    10    25 1   
    23    10    37 1   
    24    10    38 1   
    25    10    39 1   
    26    11    23 ar  
    27    11    24 ar  
    28    11    40 1   
    29    12    22 1   
    30    12    26 2   
    31    12    27 1   
    32    13    41 1   
    33    13    42 1   
    34    13    43 1   
    35    13    51 1   
    36    14    45 1   
    37    14    46 1   
    38    14    47 1   
    39    14    51 1   
    40    15    16 1   
    41    15    51 1   
    42    17    18 ar  
    43    17    50 1   
    44    19    20 2   
    45    19    21 1   
    46    19    50 1   
    47    21    24 ar  
    48    22    23 ar  
    49    23    48 1   
    50    24    25 1   
    51    27    49 1   
    52    36    50 1   
    53    44    51 1   
@<TRIPOS>SUBSTRUCTURE
     1 9E4         1 TEMP              0 ****  ****    0 ROOT
