@<TRIPOS>MOLECULE
9E4
   51    53     1     0     0
SMALL
abcg2


@<TRIPOS>ATOM
      1 N3          -5.6680    -0.9810    -0.2710 nc         1 9E4      -0.365000
      2 C4          -5.7150     0.9580     0.6120 cd         1 9E4       0.364400
      3 N2          -6.4780    -0.0020     0.1680 nc         1 9E4      -0.366000
      4 C7          -3.4840    -2.7360    -0.8930 ca         1 9E4      -0.143000
      5 C6          -3.2780    -1.4290    -0.4620 ca         1 9E4       0.356000
      6 C9          -1.1130    -2.9160    -1.1750 ca         1 9E4      -0.197000
      7 C13          3.1110    -0.4430     0.2640 ca         1 9E4       0.001000
      8 C20          7.8270    -1.3270     1.2000 c3         1 9E4       0.093300
      9 C8          -2.3730    -3.4780    -1.2610 ca         1 9E4      -0.054000
     10 C18          1.4920     3.7270    -1.4260 c3         1 9E4       0.145900
     11 C16          3.6710     2.0830    -0.7320 ca         1 9E4      -0.217000
     12 C19          5.5070    -1.0100     0.5290 c          1 9E4       0.616700
     13 C1          -2.8690     2.3540    -0.3430 c3         1 9E4      -0.102600
     14 C3          -3.6070     2.3360     2.0710 c3         1 9E4      -0.102600
     15 N1          -4.4110     0.6360     0.4840 na         1 9E4      -0.331000
     16 C5          -4.4280    -0.6000    -0.0870 cd         1 9E4       0.319500
     17 C10         -1.0190    -1.5980    -0.7280 ca         1 9E4       0.487900
     18 N4          -2.0720    -0.8770    -0.3980 nb         1 9E4      -0.703000
     19 C11          0.6500    -0.0020     0.1650 c          1 9E4       0.646700
     20 O1          -0.0210     0.5050     1.0350 o          1 9E4      -0.540100
     21 C12          2.0740     0.4070    -0.0680 ca         1 9E4      -0.212600
     22 C14          4.4410    -0.0420     0.1400 ca         1 9E4      -0.195600
     23 C15          4.6990     1.2250    -0.3720 ca         1 9E4      -0.029000
     24 C17          2.3460     1.6870    -0.5720 ca         1 9E4       0.204100
     25 O2           1.2850     2.4330    -0.8880 os         1 9E4      -0.323100
     26 O3           5.2790    -2.2130     0.5840 o          1 9E4      -0.605100
     27 N6           6.7120    -0.4950     0.8140 ns         1 9E4      -0.502900
     28 H8          -6.0640     1.8870     1.0320 h5         1 9E4       0.062100
     29 H9          -4.4790    -3.1530    -0.9440 ha         1 9E4       0.155000
     30 H11         -0.2270    -3.4780    -1.4380 ha         1 9E4       0.127000
     31 H13          2.8860    -1.4310     0.6470 ha         1 9E4       0.144000
     32 H22          8.7150    -0.7040     1.2630 h1         1 9E4       0.041700
     33 H21          7.6700    -1.8030     2.1690 h1         1 9E4       0.041700
     34 H20          8.0090    -2.1080     0.4620 h1         1 9E4       0.041700
     35 H10         -2.4890    -4.4970    -1.6030 ha         1 9E4       0.125000
     36 H12          0.9400    -1.3920    -1.2800 hn         1 9E4       0.164000
     37 H18          2.0320     3.6890    -2.3750 h1         1 9E4       0.047367
     38 H16          0.5050     4.1480    -1.5990 h1         1 9E4       0.047367
     39 H17          2.0360     4.3720    -0.7310 h1         1 9E4       0.047367
     40 H15          3.9230     3.0510    -1.1410 ha         1 9E4       0.125000
     41 H2          -3.6480     3.0750    -0.5940 hc         1 9E4       0.046367
     42 H1          -1.9570     2.9010    -0.1050 hc         1 9E4       0.046367
     43 H3          -2.6650     1.7380    -1.2170 hc         1 9E4       0.046367
     44 H4          -2.4520     0.8330     1.0870 h1         1 9E4       0.119700
     45 H6          -2.7050     2.8540     2.3930 hc         1 9E4       0.046367
     46 H5          -4.3610     3.0970     1.8660 hc         1 9E4       0.046367
     47 H7          -3.9510     1.7200     2.9020 hc         1 9E4       0.046367
     48 H14          5.7150     1.5650    -0.5280 ha         1 9E4       0.113000
     49 H19          6.8260     0.5000     0.8910 hn         1 9E4       0.315500
     50 N5           0.2390    -0.9960    -0.6720 ns         1 9E4      -0.330900
     51 C2          -3.2740     1.4990     0.8480 c3         1 9E4       0.087300
@<TRIPOS>BOND
     1     1     3 1   
     2     1    16 2   
     3     2     3 2   
     4     2    15 1   
     5     2    28 1   
     6     4     5 ar  
     7     4     9 ar  
     8     4    29 1   
     9     5    16 1   
    10     5    18 ar  
    11     6     9 ar  
    12     6    17 ar  
    13     6    30 1   
    14     7    21 ar  
    15     7    22 ar  
    16     7    31 1   
    17     8    27 1   
    18     8    32 1   
    19     8    33 1   
    20     8    34 1   
    21     9    35 1   
    22    10    25 1   
    23    10    37 1   
    24    10    38 1   
    25    10    39 1   
    26    11    23 ar  
    27    11    24 ar  
    28    11    40 1   
    29    12    22 1   
    30    12    26 2   
    31    12    27 1   
    32    13    41 1   
    33    13    42 1   
    34    13    43 1   
    35    13    51 1   
    36    14    45 1   
    37    14    46 1   
    38    14    47 1   
    39    14    51 1   
    40    15    16 1   
    41    15    51 1   
    42    17    18 ar  
    43    17    50 1   
    44    19    20 2   
    45    19    21 1   
    46    19    50 1   
    47    21    24 ar  
    48    22    23 ar  
    49    23    48 1   
    50    24    25 1   
    51    27    49 1   
    52    36    50 1   
    53    44    51 1   
@<TRIPOS>SUBSTRUCTURE
     1 9E4         1 TEMP              0 ****  ****    0 ROOT
