@<TRIPOS>MOLECULE
9E5
   46    48     1     0     0
SMALL
abcg2


@<TRIPOS>ATOM
      1 C4           5.6160     0.1340    -1.2730 ca         1 9E5      -0.050000
      2 C5           4.3780     0.3680    -0.6770 ca         1 9E5      -0.138800
      3 C6           3.4220     1.4400    -0.7320 cc         1 9E5      -0.027400
      4 C7           2.4130     1.0550     0.0930 cd         1 9E5      -0.071100
      5 C9           3.8530    -0.5880     0.1890 ca         1 9E5       0.089100
      6 C10          4.4730    -1.7850     0.5170 ca         1 9E5      -0.078300
      7 C12          1.1520     1.7210     0.4610 c          1 9E5       0.648300
      8 C3           6.2610    -1.0480    -0.9650 ca         1 9E5      -0.131000
      9 O24         -6.5730    -1.3740    -0.3050 o          1 9E5      -0.530000
     10 O23         -5.3810    -1.0360    -2.4980 o          1 9E5      -0.530000
     11 N25         -6.7440     0.7860    -1.5110 n8         1 9E5      -0.998100
     12 C19         -4.3650     0.0350    -0.3410 ca         1 9E5      -0.319500
     13 C18         -4.3840     0.1150     1.0440 ca         1 9E5      -0.017000
     14 C17         -3.2600     0.5840     1.7060 ca         1 9E5      -0.119500
     15 C20         -3.2410     0.4140    -1.0630 ca         1 9E5      -0.017000
     16 C21         -2.1280     0.8810    -0.3870 ca         1 9E5      -0.119500
     17 C16         -2.1250     0.9740     1.0030 ca         1 9E5      -0.053300
     18 C15         -0.9280     1.5150     1.7470 c3         1 9E5       0.138300
     19 N14          0.3320     1.0130     1.2600 ns         1 9E5      -0.496900
     20 O13          0.8910     2.8450     0.0520 o          1 9E5      -0.597100
     21 C26          3.5880     2.6710    -1.5500 c3         1 9E5      -0.037900
     22 O8           2.6580    -0.1690     0.6550 os         1 9E5      -0.187200
     23 C2           5.7140    -2.0020    -0.0880 ca         1 9E5      -0.044300
     24 C1           6.4700    -3.2660     0.1970 c3         1 9E5      -0.050800
     25 H1           6.0630     0.8480    -1.9530 ha         1 9E5       0.123000
     26 H2           3.7100    -3.7440     0.9610 hc         1 9E5       0.045700
     27 H3           4.4960    -2.9580     2.3180 hc         1 9E5       0.045700
     28 H4           2.8880    -2.4520     1.8230 hc         1 9E5       0.045700
     29 H5           7.2260    -1.2550    -1.4110 ha         1 9E5       0.116000
     30 H6          -7.1180     1.2270    -0.6790 hn         1 9E5       0.476500
     31 H7          -6.3080     1.4680    -2.1230 hn         1 9E5       0.476500
     32 H8          -5.2530    -0.1920     1.6100 ha         1 9E5       0.137000
     33 H9          -3.2690     0.6370     2.7880 ha         1 9E5       0.124500
     34 H10         -3.2220     0.3460    -2.1430 ha         1 9E5       0.137000
     35 H11         -1.2580     1.1770    -0.9580 ha         1 9E5       0.124500
     36 H12         -0.9200     2.6030     1.6760 h1         1 9E5       0.070200
     37 H13         -1.0140     1.2700     2.8060 h1         1 9E5       0.070200
     38 H14          0.5900     0.0790     1.5370 hn         1 9E5       0.334500
     39 H15          3.8070     2.4070    -2.5860 hc         1 9E5       0.056700
     40 H16          2.7060     3.3010    -1.5330 hc         1 9E5       0.056700
     41 H17          4.4340     3.2560    -1.1860 hc         1 9E5       0.056700
     42 H18          5.9150    -4.1480    -0.1310 hc         1 9E5       0.045367
     43 H19          7.4320    -3.2740    -0.3130 hc         1 9E5       0.045367
     44 H20          6.6580    -3.3920     1.2650 hc         1 9E5       0.045367
     45 C11          3.8560    -2.7800     1.4520 c3         1 9E5      -0.038800
     46 S22         -5.8070    -0.5280    -1.2050 sy         1 9E5       1.142600
@<TRIPOS>BOND
     1     1     2 ar  
     2     1     8 ar  
     3     1    25 1   
     4     2     3 1   
     5     2     5 ar  
     6     3     4 2   
     7     3    21 1   
     8     4     7 1   
     9     4    22 1   
    10     5     6 ar  
    11     5    22 1   
    12     6    23 ar  
    13     6    45 1   
    14     7    19 1   
    15     7    20 2   
    16     8    23 ar  
    17     8    29 1   
    18     9    46 2   
    19    10    46 2   
    20    11    30 1   
    21    11    31 1   
    22    11    46 1   
    23    12    13 ar  
    24    12    15 ar  
    25    12    46 1   
    26    13    14 ar  
    27    13    32 1   
    28    14    17 ar  
    29    14    33 1   
    30    15    16 ar  
    31    15    34 1   
    32    16    17 ar  
    33    16    35 1   
    34    17    18 1   
    35    18    19 1   
    36    18    36 1   
    37    18    37 1   
    38    19    38 1   
    39    21    39 1   
    40    21    40 1   
    41    21    41 1   
    42    23    24 1   
    43    24    42 1   
    44    24    43 1   
    45    24    44 1   
    46    26    45 1   
    47    27    45 1   
    48    28    45 1   
@<TRIPOS>SUBSTRUCTURE
     1 9E5         1 TEMP              0 ****  ****    0 ROOT
